* PEX produced on Fri Nov  7 02:57:23 PM CET 2025 using /foss/tools/sak/iic-pex.sh with m=1 and s=1
* NGSPICE file created from third_order_mfb_lp_filter_wo_C.ext - technology: sky130A

.subckt third_order_mfb_lp_filter_wo_C_pex vinp vinn vC1p vC1n vC2n vC2p di_filter_ota_en
+ voutn voutp VDD VSS
X0 resistors_0/resistors_n_0/sky130_fd_pr__res_xhigh_po_0p35_6YX8Z4_0.R1_61 resistors_0/resistors_n_0/sky130_fd_pr__res_xhigh_po_0p35_6YX8Z4_0.R2_62 VSS sky130_fd_pr__res_xhigh_po_0p35 l=2
X1 resistors_0/resistors_p_0/sky130_fd_pr__res_xhigh_po_0p35_6YX8Z4_0.R1_2 resistors_0/resistors_p_0/sky130_fd_pr__res_xhigh_po_0p35_6YX8Z4_0.R2_3 VSS sky130_fd_pr__res_xhigh_po_0p35 l=2
X2 resistors_0/resistors_n_0/sky130_fd_pr__res_xhigh_po_0p35_6YX8Z4_0.R1_111 resistors_0/resistors_n_0/sky130_fd_pr__res_xhigh_po_0p35_6YX8Z4_0.R2_110 VSS sky130_fd_pr__res_xhigh_po_0p35 l=2
X3 ota_core_hybrid_bm_0.inverter_lv_en_NF6_1.sky130_fd_pr__nfet_01v8_lvt_WHJEU4_0.S1 resistors_0/resistors_n_0/sky130_fd_pr__res_xhigh_po_0p35_6YX8Z4_0.R1_99 ota_core_hybrid_bm_0.inverter_lv_en_NF6_6.vout VSS sky130_fd_pr__nfet_01v8_lvt ad=0.435 pd=3.29 as=0.435 ps=3.29 w=3 l=1
X4 voutp resistors_0/resistors_n_0/sky130_fd_pr__res_xhigh_po_0p35_6YX8Z4_0.R1_99 ota_core_hybrid_bm_0.inverter_lv_en_NF6_3.sky130_fd_pr__pfet_01v8_lvt_P4QH36_0.S1 VDD sky130_fd_pr__pfet_01v8_lvt ad=1.305 pd=9.29 as=1.305 ps=9.29 w=9 l=1
X5 ota_core_hybrid_bm_0.inverter_lv_en_NF6_0.sky130_fd_pr__pfet_01v8_lvt_P4QH36_0.S1 resistors_0/resistors_p_0/sky130_fd_pr__res_xhigh_po_0p35_6YX8Z4_0.R2_99 ota_core_hybrid_bm_0.inverter_lv_en_NF6_6.vout VDD sky130_fd_pr__pfet_01v8_lvt ad=1.305 pd=9.29 as=1.305 ps=9.29 w=9 l=1
X6 resistors_0/resistors_n_0/sky130_fd_pr__res_xhigh_po_0p35_6YX8Z4_0.R1_15 resistors_0/resistors_n_0/sky130_fd_pr__res_xhigh_po_0p35_6YX8Z4_0.R2_14 VSS sky130_fd_pr__res_xhigh_po_0p35 l=2
X7 VDD ota_core_hybrid_bm_0.ota_core_en_n ota_core_hybrid_bm_0.inverter_lv_en_NF4_1.sky130_fd_pr__pfet_01v8_lvt_P4JB26_0.S1 VDD sky130_fd_pr__pfet_01v8_lvt ad=2.61 pd=18.58 as=1.305 ps=9.29 w=9 l=1
X8 resistors_0/resistors_n_0/sky130_fd_pr__res_xhigh_po_0p35_6YX8Z4_0.R1_77 resistors_0/resistors_n_0/sky130_fd_pr__res_xhigh_po_0p35_6YX8Z4_0.R2_76 VSS sky130_fd_pr__res_xhigh_po_0p35 l=2
X9 ota_core_hybrid_bm_0.inverter_lv_en_NF6_6.vout resistors_0/resistors_p_0/sky130_fd_pr__res_xhigh_po_0p35_6YX8Z4_0.R2_99 ota_core_hybrid_bm_0.inverter_lv_en_NF6_0.sky130_fd_pr__pfet_01v8_lvt_P4QH36_0.S1 VDD sky130_fd_pr__pfet_01v8_lvt ad=1.305 pd=9.29 as=1.305 ps=9.29 w=9 l=1
X10 resistors_0/resistors_p_0/sky130_fd_pr__res_xhigh_po_0p35_6YX8Z4_0.R1_128 resistors_0/resistors_p_0/sky130_fd_pr__res_xhigh_po_0p35_6YX8Z4_0.R2_127 VSS sky130_fd_pr__res_xhigh_po_0p35 l=2
X11 resistors_0/resistors_n_0/sky130_fd_pr__res_xhigh_po_0p35_6YX8Z4_0.R1_125 resistors_0/resistors_n_0/sky130_fd_pr__res_xhigh_po_0p35_6YX8Z4_0.R2_126 VSS sky130_fd_pr__res_xhigh_po_0p35 l=2
X12 ota_core_hybrid_bm_0.inverter_lv_en_NF6_6.sky130_fd_pr__pfet_01v8_lvt_P4QH36_0.S1 ota_core_hybrid_bm_0.ota_core_en_n VDD VDD sky130_fd_pr__pfet_01v8_lvt ad=1.305 pd=9.29 as=2.61 ps=18.58 w=9 l=1
X13 resistors_0/resistors_p_0/sky130_fd_pr__res_xhigh_po_0p35_6YX8Z4_0.R1_78 resistors_0/resistors_p_0/sky130_fd_pr__res_xhigh_po_0p35_6YX8Z4_0.R2_79 VSS sky130_fd_pr__res_xhigh_po_0p35 l=2
X14 resistors_0/resistors_p_0/sky130_fd_pr__res_xhigh_po_0p35_6YX8Z4_0.R1_68 resistors_0/resistors_p_0/sky130_fd_pr__res_xhigh_po_0p35_6YX8Z4_0.R2_69 VSS sky130_fd_pr__res_xhigh_po_0p35 l=2
X15 ota_core_hybrid_bm_0.inverter_lv_en_NF6_8.sky130_fd_pr__nfet_01v8_lvt_WHJEU4_0.S1 voutp ota_core_hybrid_bm_0.inverter_lv_en_NF6_8.vout VSS sky130_fd_pr__nfet_01v8_lvt ad=0.435 pd=3.29 as=0.435 ps=3.29 w=3 l=1
X16 resistors_0/resistors_p_0/sky130_fd_pr__res_xhigh_po_0p35_6YX8Z4_0.R1_26 resistors_0/resistors_p_0/sky130_fd_pr__res_xhigh_po_0p35_6YX8Z4_0.R2_25 VSS sky130_fd_pr__res_xhigh_po_0p35 l=2
X17 resistors_0/resistors_n_0/sky130_fd_pr__res_xhigh_po_0p35_6YX8Z4_0.R1_29 resistors_0/resistors_n_0/sky130_fd_pr__res_xhigh_po_0p35_6YX8Z4_0.R2_30 VSS sky130_fd_pr__res_xhigh_po_0p35 l=2
X18 resistors_0/resistors_n_0/sky130_fd_pr__res_xhigh_po_0p35_6YX8Z4_0.R1_67 resistors_0/resistors_n_0/sky130_fd_pr__res_xhigh_po_0p35_6YX8Z4_0.R2_68 VSS sky130_fd_pr__res_xhigh_po_0p35 l=2
X19 resistors_0/resistors_n_0/sky130_fd_pr__res_xhigh_po_0p35_6YX8Z4_0.R1_21 resistors_0/resistors_n_0/sky130_fd_pr__res_xhigh_po_0p35_6YX8Z4_0.R2_22 VSS sky130_fd_pr__res_xhigh_po_0p35 l=2
X20 ota_core_hybrid_bm_0.inverter_lv_en_NF6_8.vout voutp ota_core_hybrid_bm_0.inverter_lv_en_NF6_8.sky130_fd_pr__nfet_01v8_lvt_WHJEU4_0.S1 VSS sky130_fd_pr__nfet_01v8_lvt ad=0.435 pd=3.29 as=0.435 ps=3.29 w=3 l=1
X21 ota_core_hybrid_bm_0.inverter_lv_en_NF6_3.sky130_fd_pr__nfet_01v8_lvt_WHJEU4_0.S1 resistors_0/resistors_n_0/sky130_fd_pr__res_xhigh_po_0p35_6YX8Z4_0.R1_99 voutp VSS sky130_fd_pr__nfet_01v8_lvt ad=0.435 pd=3.29 as=0.435 ps=3.29 w=3 l=1
X22 ota_core_hybrid_bm_0.inverter_lv_en_NF6_4.sky130_fd_pr__pfet_01v8_lvt_P4QH36_0.S1 ota_core_hybrid_bm_0.inverter_lv_en_NF6_6.vout voutn VDD sky130_fd_pr__pfet_01v8_lvt ad=1.305 pd=9.29 as=1.305 ps=9.29 w=9 l=1
X23 resistors_0/resistors_p_0/sky130_fd_pr__res_xhigh_po_0p35_6YX8Z4_0.R1_108 resistors_0/resistors_p_0/sky130_fd_pr__res_xhigh_po_0p35_6YX8Z4_0.R2_109 VSS sky130_fd_pr__res_xhigh_po_0p35 l=2
X24 resistors_0/resistors_p_0/sky130_fd_pr__res_xhigh_po_0p35_6YX8Z4_0.R1_50 resistors_0/resistors_p_0/sky130_fd_pr__res_xhigh_po_0p35_6YX8Z4_0.R2_49 VSS sky130_fd_pr__res_xhigh_po_0p35 l=2
X25 resistors_0/resistors_n_0/sky130_fd_pr__res_xhigh_po_0p35_6YX8Z4_0.R1_21 resistors_0/resistors_n_0/sky130_fd_pr__res_xhigh_po_0p35_6YX8Z4_0.R2_20 VSS sky130_fd_pr__res_xhigh_po_0p35 l=2
X26 VDD ota_core_hybrid_bm_0.ota_core_en_n ota_core_hybrid_bm_0.inverter_lv_en_NF6_2.sky130_fd_pr__pfet_01v8_lvt_P4QH36_0.S1 VDD sky130_fd_pr__pfet_01v8_lvt ad=2.61 pd=18.58 as=1.305 ps=9.29 w=9 l=1
X27 resistors_0/resistors_n_0/sky130_fd_pr__res_xhigh_po_0p35_6YX8Z4_0.R1_83 resistors_0/resistors_n_0/sky130_fd_pr__res_xhigh_po_0p35_6YX8Z4_0.R2_82 VSS sky130_fd_pr__res_xhigh_po_0p35 l=2
X28 ota_core_hybrid_bm_0.inverter_lv_en_NF6_5.sky130_fd_pr__nfet_01v8_lvt_WHJEU4_0.S1 ota_core_hybrid_bm_0.inverter_lv_en_NF6_6.vout voutp VSS sky130_fd_pr__nfet_01v8_lvt ad=0.435 pd=3.29 as=0.435 ps=3.29 w=3 l=1
X29 ota_core_hybrid_bm_0.inverter_lv_en_NF6_7.sky130_fd_pr__pfet_01v8_lvt_P4QH36_0.S1 voutn ota_core_hybrid_bm_0.inverter_lv_en_NF6_8.vout VDD sky130_fd_pr__pfet_01v8_lvt ad=1.305 pd=9.29 as=1.305 ps=9.29 w=9 l=1
X30 resistors_0/resistors_p_0/sky130_fd_pr__res_xhigh_po_0p35_6YX8Z4_0.R1_38 resistors_0/resistors_p_0/sky130_fd_pr__res_xhigh_po_0p35_6YX8Z4_0.R2_39 VSS sky130_fd_pr__res_xhigh_po_0p35 l=2
X31 ota_core_hybrid_bm_0.inverter_lv_en_NF6_1.sky130_fd_pr__pfet_01v8_lvt_P4QH36_0.S1 resistors_0/resistors_n_0/sky130_fd_pr__res_xhigh_po_0p35_6YX8Z4_0.R1_99 ota_core_hybrid_bm_0.inverter_lv_en_NF6_6.vout VDD sky130_fd_pr__pfet_01v8_lvt ad=1.305 pd=9.29 as=1.305 ps=9.29 w=9 l=1
X32 resistors_0/resistors_n_0/sky130_fd_pr__res_xhigh_po_0p35_6YX8Z4_0.R1_35 vC2n VSS sky130_fd_pr__res_xhigh_po_0p35 l=2
X33 resistors_0/resistors_n_0/sky130_fd_pr__res_xhigh_po_0p35_6YX8Z4_0.R1_117 resistors_0/resistors_n_0/sky130_fd_pr__res_xhigh_po_0p35_6YX8Z4_0.R2_116 VSS sky130_fd_pr__res_xhigh_po_0p35 l=2
X34 voutp ota_core_hybrid_bm_0.inverter_lv_en_NF6_6.vout ota_core_hybrid_bm_0.inverter_lv_en_NF6_5.sky130_fd_pr__nfet_01v8_lvt_WHJEU4_0.S1 VSS sky130_fd_pr__nfet_01v8_lvt ad=0.435 pd=3.29 as=0.435 ps=3.29 w=3 l=1
X35 ota_core_hybrid_bm_0.inverter_lv_en_NF4_0.sky130_fd_pr__nfet_01v8_lvt_XCBGUP_0.S1 VDD VSS VSS sky130_fd_pr__nfet_01v8_lvt ad=0.435 pd=3.29 as=0.87 ps=6.58 w=3 l=1
X36 resistors_0/resistors_n_0/sky130_fd_pr__res_xhigh_po_0p35_6YX8Z4_0.R1_73 resistors_0/resistors_n_0/sky130_fd_pr__res_xhigh_po_0p35_6YX8Z4_0.R2_74 VSS sky130_fd_pr__res_xhigh_po_0p35 l=2
X37 resistors_0/resistors_n_0/sky130_fd_pr__res_xhigh_po_0p35_6YX8Z4_0.R1_27 resistors_0/resistors_n_0/sky130_fd_pr__res_xhigh_po_0p35_6YX8Z4_0.R2_28 VSS sky130_fd_pr__res_xhigh_po_0p35 l=2
X38 ota_core_hybrid_bm_0.inverter_lv_en_NF6_2.sky130_fd_pr__pfet_01v8_lvt_P4QH36_0.S1 resistors_0/resistors_p_0/sky130_fd_pr__res_xhigh_po_0p35_6YX8Z4_0.R2_99 voutn VDD sky130_fd_pr__pfet_01v8_lvt ad=1.305 pd=9.29 as=1.305 ps=9.29 w=9 l=1
X39 resistors_0/resistors_p_0/sky130_fd_pr__res_xhigh_po_0p35_6YX8Z4_0.R1_122 resistors_0/resistors_p_0/sky130_fd_pr__res_xhigh_po_0p35_6YX8Z4_0.R2_121 VSS sky130_fd_pr__res_xhigh_po_0p35 l=2
X40 resistors_0/resistors_n_0/sky130_fd_pr__res_xhigh_po_0p35_6YX8Z4_0.R1_3 resistors_0/resistors_n_0/sky130_fd_pr__res_xhigh_po_0p35_6YX8Z4_0.R2_4 VSS sky130_fd_pr__res_xhigh_po_0p35 l=2
X41 resistors_0/resistors_p_0/sky130_fd_pr__res_xhigh_po_0p35_6YX8Z4_0.R1_72 resistors_0/resistors_p_0/sky130_fd_pr__res_xhigh_po_0p35_6YX8Z4_0.R2_73 VSS sky130_fd_pr__res_xhigh_po_0p35 l=2
X42 resistors_0/resistors_p_0/sky130_fd_pr__res_xhigh_po_0p35_6YX8Z4_0.R1_62 resistors_0/resistors_p_0/sky130_fd_pr__res_xhigh_po_0p35_6YX8Z4_0.R2_63 VSS sky130_fd_pr__res_xhigh_po_0p35 l=2
X43 resistors_0/resistors_p_0/sky130_fd_pr__res_xhigh_po_0p35_6YX8Z4_0.R1_104 resistors_0/resistors_p_0/sky130_fd_pr__res_xhigh_po_0p35_6YX8Z4_0.R2_105 VSS sky130_fd_pr__res_xhigh_po_0p35 l=2
X44 resistors_0/resistors_p_0/sky130_fd_pr__res_xhigh_po_0p35_6YX8Z4_0.R1_20 resistors_0/resistors_p_0/sky130_fd_pr__res_xhigh_po_0p35_6YX8Z4_0.R2_19 VSS sky130_fd_pr__res_xhigh_po_0p35 l=2
X45 ota_core_hybrid_bm_0.inverter_lv_en_NF6_8.vout voutp ota_core_hybrid_bm_0.inverter_lv_en_NF6_8.sky130_fd_pr__nfet_01v8_lvt_WHJEU4_0.S1 VSS sky130_fd_pr__nfet_01v8_lvt ad=0.435 pd=3.29 as=0.435 ps=3.29 w=3 l=1
X46 ota_core_hybrid_bm_0.inverter_lv_en_NF6_6.vout resistors_0/resistors_n_0/sky130_fd_pr__res_xhigh_po_0p35_6YX8Z4_0.R1_99 ota_core_hybrid_bm_0.inverter_lv_en_NF6_1.sky130_fd_pr__pfet_01v8_lvt_P4QH36_0.S1 VDD sky130_fd_pr__pfet_01v8_lvt ad=1.305 pd=9.29 as=1.305 ps=9.29 w=9 l=1
X47 resistors_0/resistors_n_0/sky130_fd_pr__res_xhigh_po_0p35_6YX8Z4_0.R1_89 resistors_0/resistors_n_0/sky130_fd_pr__res_xhigh_po_0p35_6YX8Z4_0.R2_88 VSS sky130_fd_pr__res_xhigh_po_0p35 l=2
X48 resistors_0/resistors_n_0/sky130_fd_pr__res_xhigh_po_0p35_6YX8Z4_0.R1_131 resistors_0/resistors_n_0/sky130_fd_pr__res_xhigh_po_0p35_6YX8Z4_0.R2_132 VSS sky130_fd_pr__res_xhigh_po_0p35 l=2
X49 ota_core_hybrid_bm_0.inverter_lv_en_NF6_4.sky130_fd_pr__pfet_01v8_lvt_P4QH36_0.S1 ota_core_hybrid_bm_0.ota_core_en_n VDD VDD sky130_fd_pr__pfet_01v8_lvt ad=1.305 pd=9.29 as=2.61 ps=18.58 w=9 l=1
X50 voutn resistors_0/resistors_p_0/sky130_fd_pr__res_xhigh_po_0p35_6YX8Z4_0.R2_99 ota_core_hybrid_bm_0.inverter_lv_en_NF6_2.sky130_fd_pr__pfet_01v8_lvt_P4QH36_0.S1 VDD sky130_fd_pr__pfet_01v8_lvt ad=1.305 pd=9.29 as=1.305 ps=9.29 w=9 l=1
X51 resistors_0/resistors_p_0/sky130_fd_pr__res_xhigh_po_0p35_6YX8Z4_0.R1_64 resistors_0/resistors_p_0/sky130_fd_pr__res_xhigh_po_0p35_6YX8Z4_0.R2_63 VSS sky130_fd_pr__res_xhigh_po_0p35 l=2
X52 resistors_0/resistors_n_0/sky130_fd_pr__res_xhigh_po_0p35_6YX8Z4_0.R1_123 resistors_0/resistors_n_0/sky130_fd_pr__res_xhigh_po_0p35_6YX8Z4_0.R2_122 VSS sky130_fd_pr__res_xhigh_po_0p35 l=2
X53 ota_core_hybrid_bm_0.inverter_lv_en_NF6_1.sky130_fd_pr__pfet_01v8_lvt_P4QH36_0.S1 resistors_0/resistors_n_0/sky130_fd_pr__res_xhigh_po_0p35_6YX8Z4_0.R1_99 ota_core_hybrid_bm_0.inverter_lv_en_NF6_6.vout VDD sky130_fd_pr__pfet_01v8_lvt ad=1.305 pd=9.29 as=1.305 ps=9.29 w=9 l=1
X54 resistors_0/resistors_p_0/sky130_fd_pr__res_xhigh_po_0p35_6YX8Z4_0.R1_54 resistors_0/resistors_p_0/sky130_fd_pr__res_xhigh_po_0p35_6YX8Z4_0.R2_53 VSS sky130_fd_pr__res_xhigh_po_0p35 l=2
X55 ota_core_hybrid_bm_0.inverter_lv_en_NF6_6.vout ota_core_hybrid_bm_0.inverter_lv_en_NF6_8.vout ota_core_hybrid_bm_0.inverter_lv_en_NF6_6.sky130_fd_pr__nfet_01v8_lvt_WHJEU4_0.S1 VSS sky130_fd_pr__nfet_01v8_lvt ad=0.435 pd=3.29 as=0.435 ps=3.29 w=3 l=1
X56 resistors_0/resistors_p_0/sky130_fd_pr__res_xhigh_po_0p35_6YX8Z4_0.R1_134 resistors_0/resistors_p_0/sky130_fd_pr__res_xhigh_po_0p35_6YX8Z4_0.R2_135 VSS sky130_fd_pr__res_xhigh_po_0p35 l=2
X57 resistors_0/resistors_p_0/sky130_fd_pr__res_xhigh_po_0p35_6YX8Z4_0.R1_96 resistors_0/resistors_p_0/sky130_fd_pr__res_xhigh_po_0p35_6YX8Z4_0.R2_95 VSS sky130_fd_pr__res_xhigh_po_0p35 l=2
X58 resistors_0/resistors_n_0/sky130_fd_pr__res_xhigh_po_0p35_6YX8Z4_0.R1_33 resistors_0/resistors_n_0/sky130_fd_pr__res_xhigh_po_0p35_6YX8Z4_0.R2_34 VSS sky130_fd_pr__res_xhigh_po_0p35 l=2
X59 resistors_0/resistors_p_0/sky130_fd_pr__res_xhigh_po_0p35_6YX8Z4_0.R1_10 resistors_0/resistors_p_0/sky130_fd_pr__res_xhigh_po_0p35_6YX8Z4_0.R2_11 VSS sky130_fd_pr__res_xhigh_po_0p35 l=2
X60 resistors_0/resistors_p_0/sky130_fd_pr__res_xhigh_po_0p35_6YX8Z4_0.R1_86 resistors_0/resistors_p_0/sky130_fd_pr__res_xhigh_po_0p35_6YX8Z4_0.R2_85 VSS sky130_fd_pr__res_xhigh_po_0p35 l=2
X61 resistors_0/resistors_p_0/sky130_fd_pr__res_xhigh_po_0p35_6YX8Z4_0.R1_0 resistors_0/resistors_p_0/sky130_fd_pr__res_xhigh_po_0p35_6YX8Z4_0.R2_1 VSS sky130_fd_pr__res_xhigh_po_0p35 l=2
X62 resistors_0/resistors_p_0/sky130_fd_pr__res_xhigh_po_0p35_6YX8Z4_0.R1_42 resistors_0/resistors_p_0/sky130_fd_pr__res_xhigh_po_0p35_6YX8Z4_0.R2_43 VSS sky130_fd_pr__res_xhigh_po_0p35 l=2
X63 resistors_0/resistors_n_0/sky130_fd_pr__res_xhigh_po_0p35_6YX8Z4_0.R1_27 resistors_0/resistors_n_0/sky130_fd_pr__res_xhigh_po_0p35_6YX8Z4_0.R2_26 VSS sky130_fd_pr__res_xhigh_po_0p35 l=2
X64 resistors_0/resistors_p_0/sky130_fd_pr__res_xhigh_po_0p35_6YX8Z4_0.R1_32 resistors_0/resistors_p_0/sky130_fd_pr__res_xhigh_po_0p35_6YX8Z4_0.R2_33 VSS sky130_fd_pr__res_xhigh_po_0p35 l=2
X65 ota_core_hybrid_bm_0.inverter_lv_en_NF6_8.sky130_fd_pr__pfet_01v8_lvt_P4QH36_0.S1 voutp ota_core_hybrid_bm_0.inverter_lv_en_NF6_8.vout VDD sky130_fd_pr__pfet_01v8_lvt ad=1.305 pd=9.29 as=1.305 ps=9.29 w=9 l=1
X66 resistors_0/resistors_p_0/sky130_fd_pr__res_xhigh_po_0p35_6YX8Z4_0.R1_66 resistors_0/resistors_p_0/sky130_fd_pr__res_xhigh_po_0p35_6YX8Z4_0.R2_67 VSS sky130_fd_pr__res_xhigh_po_0p35 l=2
X67 resistors_0/resistors_p_0/sky130_fd_pr__res_xhigh_po_0p35_6YX8Z4_0.R1_126 resistors_0/resistors_p_0/sky130_fd_pr__res_xhigh_po_0p35_6YX8Z4_0.R2_125 VSS sky130_fd_pr__res_xhigh_po_0p35 l=2
X68 resistors_0/resistors_n_0/sky130_fd_pr__res_xhigh_po_0p35_6YX8Z4_0.R1_105 resistors_0/resistors_n_0/sky130_fd_pr__res_xhigh_po_0p35_6YX8Z4_0.R2_106 VSS sky130_fd_pr__res_xhigh_po_0p35 l=2
X69 voutn ota_core_hybrid_bm_0.inverter_lv_en_NF6_6.vout ota_core_hybrid_bm_0.inverter_lv_en_NF6_4.sky130_fd_pr__nfet_01v8_lvt_WHJEU4_0.S1 VSS sky130_fd_pr__nfet_01v8_lvt ad=0.435 pd=3.29 as=0.435 ps=3.29 w=3 l=1
X70 resistors_0/resistors_n_0/sky130_fd_pr__res_xhigh_po_0p35_6YX8Z4_0.R1_41 resistors_0/resistors_n_0/sky130_fd_pr__res_xhigh_po_0p35_6YX8Z4_0.R2_42 VSS sky130_fd_pr__res_xhigh_po_0p35 l=2
X71 ota_core_hybrid_bm_0.inverter_lv_en_NF6_2.sky130_fd_pr__nfet_01v8_lvt_WHJEU4_0.S1 VDD VSS VSS sky130_fd_pr__nfet_01v8_lvt ad=0.435 pd=3.29 as=0.87 ps=6.58 w=3 l=1
X72 resistors_0/resistors_p_0/sky130_fd_pr__res_xhigh_po_0p35_6YX8Z4_0.R1_116 resistors_0/resistors_p_0/sky130_fd_pr__res_xhigh_po_0p35_6YX8Z4_0.R2_115 VSS sky130_fd_pr__res_xhigh_po_0p35 l=2
X73 resistors_0/resistors_p_0/sky130_fd_pr__res_xhigh_po_0p35_6YX8Z4_0.R1_56 resistors_0/resistors_p_0/sky130_fd_pr__res_xhigh_po_0p35_6YX8Z4_0.R2_57 VSS sky130_fd_pr__res_xhigh_po_0p35 l=2
X74 resistors_0/resistors_p_0/sky130_fd_pr__res_xhigh_po_0p35_6YX8Z4_0.R1_34 resistors_0/resistors_p_0/sky130_fd_pr__res_xhigh_po_0p35_6YX8Z4_0.R2_33 VSS sky130_fd_pr__res_xhigh_po_0p35 l=2
X75 resistors_0/resistors_n_0/sky130_fd_pr__res_xhigh_po_0p35_6YX8Z4_0.R1_79 resistors_0/resistors_n_0/sky130_fd_pr__res_xhigh_po_0p35_6YX8Z4_0.R2_80 VSS sky130_fd_pr__res_xhigh_po_0p35 l=2
X76 ota_core_hybrid_bm_0.inverter_lv_en_NF6_6.vout ota_core_hybrid_bm_0.inverter_lv_en_NF6_8.vout ota_core_hybrid_bm_0.inverter_lv_en_NF6_6.sky130_fd_pr__nfet_01v8_lvt_WHJEU4_0.S1 VSS sky130_fd_pr__nfet_01v8_lvt ad=0.435 pd=3.29 as=0.435 ps=3.29 w=3 l=1
X77 resistors_0/resistors_n_0/sky130_fd_pr__res_xhigh_po_0p35_6YX8Z4_0.R1_129 resistors_0/resistors_n_0/sky130_fd_pr__res_xhigh_po_0p35_6YX8Z4_0.R2_128 VSS sky130_fd_pr__res_xhigh_po_0p35 l=2
X78 resistors_0/resistors_p_0/sky130_fd_pr__res_xhigh_po_0p35_6YX8Z4_0.R1_24 resistors_0/resistors_p_0/sky130_fd_pr__res_xhigh_po_0p35_6YX8Z4_0.R2_23 VSS sky130_fd_pr__res_xhigh_po_0p35 l=2
X79 resistors_0/resistors_n_0/sky130_fd_pr__res_xhigh_po_0p35_6YX8Z4_0.R1_71 resistors_0/resistors_n_0/sky130_fd_pr__res_xhigh_po_0p35_6YX8Z4_0.R2_72 VSS sky130_fd_pr__res_xhigh_po_0p35 l=2
X80 resistors_0/resistors_n_0/sky130_fd_pr__res_xhigh_po_0p35_6YX8Z4_0.R1_9 resistors_0/resistors_n_0/sky130_fd_pr__res_xhigh_po_0p35_6YX8Z4_0.R2_10 VSS sky130_fd_pr__res_xhigh_po_0p35 l=2
X81 resistors_0/resistors_n_0/sky130_fd_pr__res_xhigh_po_0p35_6YX8Z4_0.R1_47 resistors_0/resistors_n_0/sky130_fd_pr__res_xhigh_po_0p35_6YX8Z4_0.R2_48 VSS sky130_fd_pr__res_xhigh_po_0p35 l=2
X82 ota_core_hybrid_bm_0.inverter_lv_en_NF6_8.vout voutp ota_core_hybrid_bm_0.inverter_lv_en_NF6_8.sky130_fd_pr__pfet_01v8_lvt_P4QH36_0.S1 VDD sky130_fd_pr__pfet_01v8_lvt ad=1.305 pd=9.29 as=1.305 ps=9.29 w=9 l=1
X83 ota_core_hybrid_bm_0.inverter_lv_en_NF6_3.sky130_fd_pr__pfet_01v8_lvt_P4QH36_0.S1 resistors_0/resistors_n_0/sky130_fd_pr__res_xhigh_po_0p35_6YX8Z4_0.R1_99 voutp VDD sky130_fd_pr__pfet_01v8_lvt ad=1.305 pd=9.29 as=1.305 ps=9.29 w=9 l=1
X84 resistors_0/resistors_n_0/sky130_fd_pr__res_xhigh_po_0p35_6YX8Z4_0.R1_33 resistors_0/resistors_n_0/sky130_fd_pr__res_xhigh_po_0p35_6YX8Z4_0.R2_32 VSS sky130_fd_pr__res_xhigh_po_0p35 l=2
X85 VSS VDD ota_core_hybrid_bm_0.inverter_lv_en_NF6_0.sky130_fd_pr__nfet_01v8_lvt_WHJEU4_0.S1 VSS sky130_fd_pr__nfet_01v8_lvt ad=0.87 pd=6.58 as=0.435 ps=3.29 w=3 l=1
X86 resistors_0/resistors_n_0/sky130_fd_pr__res_xhigh_po_0p35_6YX8Z4_0.R1_25 resistors_0/resistors_n_0/sky130_fd_pr__res_xhigh_po_0p35_6YX8Z4_0.R2_24 VSS sky130_fd_pr__res_xhigh_po_0p35 l=2
X87 ota_core_hybrid_bm_0.inverter_lv_en_NF6_5.sky130_fd_pr__pfet_01v8_lvt_P4QH36_0.S1 ota_core_hybrid_bm_0.inverter_lv_en_NF6_6.vout voutp VDD sky130_fd_pr__pfet_01v8_lvt ad=1.305 pd=9.29 as=1.305 ps=9.29 w=9 l=1
X88 resistors_0/resistors_p_0/sky130_fd_pr__res_xhigh_po_0p35_6YX8Z4_0.R1_58 resistors_0/resistors_p_0/sky130_fd_pr__res_xhigh_po_0p35_6YX8Z4_0.R2_57 VSS sky130_fd_pr__res_xhigh_po_0p35 l=2
X89 resistors_0/resistors_n_0/sky130_fd_pr__res_xhigh_po_0p35_6YX8Z4_0.R1_95 resistors_0/resistors_n_0/sky130_fd_pr__res_xhigh_po_0p35_6YX8Z4_0.R2_94 VSS sky130_fd_pr__res_xhigh_po_0p35 l=2
X90 resistors_0/resistors_p_0/sky130_fd_pr__res_xhigh_po_0p35_6YX8Z4_0.R1_48 resistors_0/resistors_p_0/sky130_fd_pr__res_xhigh_po_0p35_6YX8Z4_0.R2_47 VSS sky130_fd_pr__res_xhigh_po_0p35 l=2
X91 resistors_0/resistors_n_0/sky130_fd_pr__res_xhigh_po_0p35_6YX8Z4_0.R1_1 resistors_0/resistors_n_0/sky130_fd_pr__res_xhigh_po_0p35_6YX8Z4_0.R2_0 VSS sky130_fd_pr__res_xhigh_po_0p35 l=2
X92 resistors_0/resistors_p_0/sky130_fd_pr__res_xhigh_po_0p35_6YX8Z4_0.R1_90 resistors_0/resistors_p_0/sky130_fd_pr__res_xhigh_po_0p35_6YX8Z4_0.R2_89 VSS sky130_fd_pr__res_xhigh_po_0p35 l=2
X93 resistors_0/resistors_p_0/sky130_fd_pr__res_xhigh_po_0p35_6YX8Z4_0.R1_4 resistors_0/resistors_p_0/sky130_fd_pr__res_xhigh_po_0p35_6YX8Z4_0.R2_5 VSS sky130_fd_pr__res_xhigh_po_0p35 l=2
X94 resistors_0/resistors_p_0/sky130_fd_pr__res_xhigh_po_0p35_6YX8Z4_0.R1_80 resistors_0/resistors_p_0/sky130_fd_pr__res_xhigh_po_0p35_6YX8Z4_0.R2_79 VSS sky130_fd_pr__res_xhigh_po_0p35 l=2
X95 vC2p resistors_0/resistors_p_0/sky130_fd_pr__res_xhigh_po_0p35_6YX8Z4_0.R2_37 VSS sky130_fd_pr__res_xhigh_po_0p35 l=2
X96 ota_core_hybrid_bm_0.inverter_lv_en_NF4_0.sky130_fd_pr__pfet_01v8_lvt_P4JB26_0.S1 ota_core_hybrid_bm_0.ota_core_en_n VDD VDD sky130_fd_pr__pfet_01v8_lvt ad=1.305 pd=9.29 as=2.61 ps=18.58 w=9 l=1
X97 resistors_0/resistors_p_0/sky130_fd_pr__res_xhigh_po_0p35_6YX8Z4_0.R1_26 resistors_0/resistors_p_0/sky130_fd_pr__res_xhigh_po_0p35_6YX8Z4_0.R2_27 VSS sky130_fd_pr__res_xhigh_po_0p35 l=2
X98 voutn ota_core_hybrid_bm_0.inverter_lv_en_NF6_6.vout ota_core_hybrid_bm_0.inverter_lv_en_NF6_4.sky130_fd_pr__nfet_01v8_lvt_WHJEU4_0.S1 VSS sky130_fd_pr__nfet_01v8_lvt ad=0.435 pd=3.29 as=0.435 ps=3.29 w=3 l=1
X99 voutp ota_core_hybrid_bm_0.inverter_lv_en_NF6_6.vout ota_core_hybrid_bm_0.inverter_lv_en_NF6_5.sky130_fd_pr__pfet_01v8_lvt_P4QH36_0.S1 VDD sky130_fd_pr__pfet_01v8_lvt ad=1.305 pd=9.29 as=1.305 ps=9.29 w=9 l=1
X100 resistors_0/resistors_n_0/sky130_fd_pr__res_xhigh_po_0p35_6YX8Z4_0.R1_85 resistors_0/resistors_n_0/sky130_fd_pr__res_xhigh_po_0p35_6YX8Z4_0.R2_86 VSS sky130_fd_pr__res_xhigh_po_0p35 l=2
X101 resistors_0/resistors_n_0/sky130_fd_pr__res_xhigh_po_0p35_6YX8Z4_0.R1_39 resistors_0/resistors_n_0/sky130_fd_pr__res_xhigh_po_0p35_6YX8Z4_0.R2_40 VSS sky130_fd_pr__res_xhigh_po_0p35 l=2
X102 resistors_0/resistors_n_0/sky130_fd_pr__res_xhigh_po_0p35_6YX8Z4_0.R1_77 resistors_0/resistors_n_0/sky130_fd_pr__res_xhigh_po_0p35_6YX8Z4_0.R2_78 VSS sky130_fd_pr__res_xhigh_po_0p35 l=2
X103 resistors_0/resistors_n_0/sky130_fd_pr__res_xhigh_po_0p35_6YX8Z4_0.R1_15 resistors_0/resistors_n_0/sky130_fd_pr__res_xhigh_po_0p35_6YX8Z4_0.R2_16 VSS sky130_fd_pr__res_xhigh_po_0p35 l=2
X104 ota_core_hybrid_bm_0.inverter_lv_en_NF6_8.vout voutn ota_core_hybrid_bm_0.inverter_lv_en_NF6_7.sky130_fd_pr__nfet_01v8_lvt_WHJEU4_0.S1 VSS sky130_fd_pr__nfet_01v8_lvt ad=0.435 pd=3.29 as=0.435 ps=3.29 w=3 l=1
X105 resistors_0/resistors_n_0/sky130_fd_pr__res_xhigh_po_0p35_6YX8Z4_0.R1_53 resistors_0/resistors_n_0/sky130_fd_pr__res_xhigh_po_0p35_6YX8Z4_0.R2_54 VSS sky130_fd_pr__res_xhigh_po_0p35 l=2
X106 resistors_0/resistors_p_0/sky130_fd_pr__res_xhigh_po_0p35_6YX8Z4_0.R1_120 resistors_0/resistors_p_0/sky130_fd_pr__res_xhigh_po_0p35_6YX8Z4_0.R2_119 VSS sky130_fd_pr__res_xhigh_po_0p35 l=2
X107 resistors_0/resistors_n_0/sky130_fd_pr__res_xhigh_po_0p35_6YX8Z4_0.R1_45 resistors_0/resistors_n_0/sky130_fd_pr__res_xhigh_po_0p35_6YX8Z4_0.R2_46 VSS sky130_fd_pr__res_xhigh_po_0p35 l=2
X108 resistors_0/resistors_n_0/sky130_fd_pr__res_xhigh_po_0p35_6YX8Z4_0.R1_39 resistors_0/resistors_n_0/sky130_fd_pr__res_xhigh_po_0p35_6YX8Z4_0.R2_38 VSS sky130_fd_pr__res_xhigh_po_0p35 l=2
X109 ota_core_hybrid_bm_0.inverter_lv_en_NF6_8.vout voutp ota_core_hybrid_bm_0.inverter_lv_en_NF6_8.sky130_fd_pr__pfet_01v8_lvt_P4QH36_0.S1 VDD sky130_fd_pr__pfet_01v8_lvt ad=1.305 pd=9.29 as=1.305 ps=9.29 w=9 l=1
X110 resistors_0/resistors_p_0/sky130_fd_pr__res_xhigh_po_0p35_6YX8Z4_0.R1_70 resistors_0/resistors_p_0/sky130_fd_pr__res_xhigh_po_0p35_6YX8Z4_0.R2_71 VSS sky130_fd_pr__res_xhigh_po_0p35 l=2
X111 resistors_0/resistors_p_0/sky130_fd_pr__res_xhigh_po_0p35_6YX8Z4_0.R1_110 resistors_0/resistors_p_0/sky130_fd_pr__res_xhigh_po_0p35_6YX8Z4_0.R2_109 VSS sky130_fd_pr__res_xhigh_po_0p35 l=2
X112 resistors_0/resistors_n_0/sky130_fd_pr__res_xhigh_po_0p35_6YX8Z4_0.R1_101 resistors_0/resistors_n_0/sky130_fd_pr__res_xhigh_po_0p35_6YX8Z4_0.R2_100 VSS sky130_fd_pr__res_xhigh_po_0p35 l=2
X113 resistors_0/resistors_n_0/sky130_fd_pr__res_xhigh_po_0p35_6YX8Z4_0.R1_31 resistors_0/resistors_n_0/sky130_fd_pr__res_xhigh_po_0p35_6YX8Z4_0.R2_30 VSS sky130_fd_pr__res_xhigh_po_0p35 l=2
X114 resistors_0/resistors_p_0/sky130_fd_pr__res_xhigh_po_0p35_6YX8Z4_0.R1_28 resistors_0/resistors_p_0/sky130_fd_pr__res_xhigh_po_0p35_6YX8Z4_0.R2_27 VSS sky130_fd_pr__res_xhigh_po_0p35 l=2
X115 resistors_0/resistors_p_0/sky130_fd_pr__res_xhigh_po_0p35_6YX8Z4_0.R1_102 resistors_0/resistors_p_0/sky130_fd_pr__res_xhigh_po_0p35_6YX8Z4_0.R2_103 VSS sky130_fd_pr__res_xhigh_po_0p35 l=2
X116 ota_core_hybrid_bm_0.inverter_lv_en_NF6_7.sky130_fd_pr__nfet_01v8_lvt_WHJEU4_0.S1 VDD VSS VSS sky130_fd_pr__nfet_01v8_lvt ad=0.435 pd=3.29 as=0.87 ps=6.58 w=3 l=1
X117 resistors_0/resistors_p_0/sky130_fd_pr__res_xhigh_po_0p35_6YX8Z4_0.R1_18 vC1p VSS sky130_fd_pr__res_xhigh_po_0p35 l=2
X118 resistors_0/resistors_n_0/sky130_fd_pr__res_xhigh_po_0p35_6YX8Z4_0.R1_111 resistors_0/resistors_n_0/sky130_fd_pr__res_xhigh_po_0p35_6YX8Z4_0.R2_112 VSS sky130_fd_pr__res_xhigh_po_0p35 l=2
X119 ota_core_hybrid_bm_0.inverter_lv_en_NF6_1.sky130_fd_pr__nfet_01v8_lvt_WHJEU4_0.S1 resistors_0/resistors_n_0/sky130_fd_pr__res_xhigh_po_0p35_6YX8Z4_0.R1_99 ota_core_hybrid_bm_0.inverter_lv_en_NF6_6.vout VSS sky130_fd_pr__nfet_01v8_lvt ad=0.435 pd=3.29 as=0.435 ps=3.29 w=3 l=1
X120 resistors_0/resistors_n_0/sky130_fd_pr__res_xhigh_po_0p35_6YX8Z4_0.R1_135 resistors_0/resistors_n_0/sky130_fd_pr__res_xhigh_po_0p35_6YX8Z4_0.R2_134 VSS sky130_fd_pr__res_xhigh_po_0p35 l=2
X121 ota_core_hybrid_bm_0.inverter_lv_en_NF6_6.vout ota_core_hybrid_bm_0.inverter_lv_en_NF6_8.vout ota_core_hybrid_bm_0.inverter_lv_en_NF6_6.sky130_fd_pr__pfet_01v8_lvt_P4QH36_0.S1 VDD sky130_fd_pr__pfet_01v8_lvt ad=1.305 pd=9.29 as=1.305 ps=9.29 w=9 l=1
X122 resistors_0/resistors_p_0/sky130_fd_pr__res_xhigh_po_0p35_6YX8Z4_0.R1_52 resistors_0/resistors_p_0/sky130_fd_pr__res_xhigh_po_0p35_6YX8Z4_0.R2_51 VSS sky130_fd_pr__res_xhigh_po_0p35 l=2
X123 resistors_0/resistors_n_0/sky130_fd_pr__res_xhigh_po_0p35_6YX8Z4_0.R1_83 resistors_0/resistors_n_0/sky130_fd_pr__res_xhigh_po_0p35_6YX8Z4_0.R2_84 VSS sky130_fd_pr__res_xhigh_po_0p35 l=2
X124 ota_core_hybrid_bm_0.inverter_lv_en_NF6_5.sky130_fd_pr__nfet_01v8_lvt_WHJEU4_0.S1 VDD VSS VSS sky130_fd_pr__nfet_01v8_lvt ad=0.435 pd=3.29 as=0.87 ps=6.58 w=3 l=1
X125 VSS VDD ota_core_hybrid_bm_0.inverter_lv_en_NF6_7.sky130_fd_pr__nfet_01v8_lvt_WHJEU4_0.S1 VSS sky130_fd_pr__nfet_01v8_lvt ad=0.87 pd=6.58 as=0.435 ps=3.29 w=3 l=1
X126 resistors_0/resistors_p_0/sky130_fd_pr__res_xhigh_po_0p35_6YX8Z4_0.R1_132 resistors_0/resistors_p_0/sky130_fd_pr__res_xhigh_po_0p35_6YX8Z4_0.R2_133 VSS sky130_fd_pr__res_xhigh_po_0p35 l=2
X127 resistors_0/resistors_p_0/sky130_fd_pr__res_xhigh_po_0p35_6YX8Z4_0.R1_94 resistors_0/resistors_p_0/sky130_fd_pr__res_xhigh_po_0p35_6YX8Z4_0.R2_93 VSS sky130_fd_pr__res_xhigh_po_0p35 l=2
X128 ota_core_hybrid_bm_0.inverter_lv_en_NF6_6.vout resistors_0/resistors_n_0/sky130_fd_pr__res_xhigh_po_0p35_6YX8Z4_0.R1_99 ota_core_hybrid_bm_0.inverter_lv_en_NF6_1.sky130_fd_pr__nfet_01v8_lvt_WHJEU4_0.S1 VSS sky130_fd_pr__nfet_01v8_lvt ad=0.435 pd=3.29 as=0.435 ps=3.29 w=3 l=1
X129 resistors_0/resistors_p_0/sky130_fd_pr__res_xhigh_po_0p35_6YX8Z4_0.R1_40 resistors_0/resistors_p_0/sky130_fd_pr__res_xhigh_po_0p35_6YX8Z4_0.R2_41 VSS sky130_fd_pr__res_xhigh_po_0p35 l=2
X130 resistors_0/resistors_n_0/sky130_fd_pr__res_xhigh_po_0p35_6YX8Z4_0.R1_7 resistors_0/resistors_n_0/sky130_fd_pr__res_xhigh_po_0p35_6YX8Z4_0.R2_6 VSS sky130_fd_pr__res_xhigh_po_0p35 l=2
X131 voutn ota_core_hybrid_bm_0.inverter_lv_en_NF6_6.vout ota_core_hybrid_bm_0.inverter_lv_en_NF6_4.sky130_fd_pr__pfet_01v8_lvt_P4QH36_0.S1 VDD sky130_fd_pr__pfet_01v8_lvt ad=1.305 pd=9.29 as=1.305 ps=9.29 w=9 l=1
X132 resistors_0/resistors_n_0/sky130_fd_pr__res_xhigh_po_0p35_6YX8Z4_0.R1_117 resistors_0/resistors_n_0/sky130_fd_pr__res_xhigh_po_0p35_6YX8Z4_0.R2_118 VSS sky130_fd_pr__res_xhigh_po_0p35 l=2
X133 ota_core_hybrid_bm_0.inverter_lv_en_NF6_2.sky130_fd_pr__pfet_01v8_lvt_P4QH36_0.S1 ota_core_hybrid_bm_0.ota_core_en_n VDD VDD sky130_fd_pr__pfet_01v8_lvt ad=1.305 pd=9.29 as=2.61 ps=18.58 w=9 l=1
X134 resistors_0/resistors_n_0/sky130_fd_pr__res_xhigh_po_0p35_6YX8Z4_0.R1_91 resistors_0/resistors_n_0/sky130_fd_pr__res_xhigh_po_0p35_6YX8Z4_0.R2_92 VSS sky130_fd_pr__res_xhigh_po_0p35 l=2
X135 VSS VDD ota_core_hybrid_bm_0.inverter_lv_en_NF6_5.sky130_fd_pr__nfet_01v8_lvt_WHJEU4_0.S1 VSS sky130_fd_pr__nfet_01v8_lvt ad=0.87 pd=6.58 as=0.435 ps=3.29 w=3 l=1
X136 ota_core_hybrid_bm_0.inverter_lv_en_NF6_6.vout ota_core_hybrid_bm_0.inverter_lv_en_NF6_8.vout ota_core_hybrid_bm_0.inverter_lv_en_NF6_6.sky130_fd_pr__pfet_01v8_lvt_P4QH36_0.S1 VDD sky130_fd_pr__pfet_01v8_lvt ad=1.305 pd=9.29 as=1.305 ps=9.29 w=9 l=1
X137 resistors_0/resistors_p_0/sky130_fd_pr__res_xhigh_po_0p35_6YX8Z4_0.R1_124 resistors_0/resistors_p_0/sky130_fd_pr__res_xhigh_po_0p35_6YX8Z4_0.R2_123 VSS sky130_fd_pr__res_xhigh_po_0p35 l=2
X138 resistors_0/resistors_p_0/sky130_fd_pr__res_xhigh_po_0p35_6YX8Z4_0.R1_64 resistors_0/resistors_p_0/sky130_fd_pr__res_xhigh_po_0p35_6YX8Z4_0.R2_65 VSS sky130_fd_pr__res_xhigh_po_0p35 l=2
X139 VSS VDD ota_core_hybrid_bm_0.inverter_lv_en_NF6_8.sky130_fd_pr__nfet_01v8_lvt_WHJEU4_0.S1 VSS sky130_fd_pr__nfet_01v8_lvt ad=0.87 pd=6.58 as=0.435 ps=3.29 w=3 l=1
X140 resistors_0/resistors_p_0/sky130_fd_pr__res_xhigh_po_0p35_6YX8Z4_0.R1_22 resistors_0/resistors_p_0/sky130_fd_pr__res_xhigh_po_0p35_6YX8Z4_0.R2_21 VSS sky130_fd_pr__res_xhigh_po_0p35 l=2
X141 resistors_0/resistors_p_0/sky130_fd_pr__res_xhigh_po_0p35_6YX8Z4_0.R1_96 resistors_0/resistors_p_0/sky130_fd_pr__res_xhigh_po_0p35_6YX8Z4_0.R2_97 VSS sky130_fd_pr__res_xhigh_po_0p35 l=2
X142 resistors_0/resistors_n_0/sky130_fd_pr__res_xhigh_po_0p35_6YX8Z4_0.R1_59 resistors_0/resistors_n_0/sky130_fd_pr__res_xhigh_po_0p35_6YX8Z4_0.R2_60 VSS sky130_fd_pr__res_xhigh_po_0p35 l=2
X143 resistors_0/resistors_p_0/sky130_fd_pr__res_xhigh_po_0p35_6YX8Z4_0.R1_12 resistors_0/resistors_p_0/sky130_fd_pr__res_xhigh_po_0p35_6YX8Z4_0.R2_11 VSS sky130_fd_pr__res_xhigh_po_0p35 l=2
X144 resistors_0/resistors_n_0/sky130_fd_pr__res_xhigh_po_0p35_6YX8Z4_0.R1_109 resistors_0/resistors_n_0/sky130_fd_pr__res_xhigh_po_0p35_6YX8Z4_0.R2_108 VSS sky130_fd_pr__res_xhigh_po_0p35 l=2
X145 resistors_0/resistors_n_0/sky130_fd_pr__res_xhigh_po_0p35_6YX8Z4_0.R1_45 resistors_0/resistors_n_0/sky130_fd_pr__res_xhigh_po_0p35_6YX8Z4_0.R2_44 VSS sky130_fd_pr__res_xhigh_po_0p35 l=2
X146 VDD ota_core_hybrid_bm_0.ota_core_en_n ota_core_hybrid_bm_0.inverter_lv_en_NF6_0.sky130_fd_pr__pfet_01v8_lvt_P4QH36_0.S1 VDD sky130_fd_pr__pfet_01v8_lvt ad=2.61 pd=18.58 as=1.305 ps=9.29 w=9 l=1
X147 resistors_0/resistors_n_0/sky130_fd_pr__res_xhigh_po_0p35_6YX8Z4_0.R1_51 resistors_0/resistors_n_0/sky130_fd_pr__res_xhigh_po_0p35_6YX8Z4_0.R2_52 VSS sky130_fd_pr__res_xhigh_po_0p35 l=2