* PEX produced on Sun Nov  9 08:18:58 PM CET 2025 using /foss/tools/sak/iic-pex.sh with m=1 and s=1
* NGSPICE file created from iq_modulator.ext - technology: sky130A

.subckt iq_modulator_pex vout_RF vinn_I vinp_I vinp_Q vinn_Q VSS VDD di_LO_IX di_LO_I
+ di_LO_QX di_LO_Q di_afe_en
X0 iq_modulator_half_1.third_order_mfb_lp_filter_wo_C_0.ota_core_hybrid_bm_0.inverter_lv_en_NF6_4.sky130_fd_pr__nfet_01v8_lvt_WHJEU4_0.S1 iq_modulator_half_1.third_order_mfb_lp_filter_wo_C_0.ota_core_hybrid_bm_0.inverter_lv_en_NF6_6.vout C3_1x5_3.bottom VSS sky130_fd_pr__nfet_01v8_lvt ad=0.435 pd=3.29 as=0.435 ps=3.29 w=3 l=1
X1 vout_RF iq_modulator_half_1.passive_voltage_mode_mixer_0.transmission_gate_w_dummy_2.di_tg_ctrl C3_1x5_1.bottom VSS sky130_fd_pr__nfet_01v8 ad=0.165 pd=1.33 as=0.165 ps=1.33 w=1 l=0.15
X2 VSS iq_modulator_half_0.passive_voltage_mode_mixer_0.lo_logic_1.buf_cross iq_modulator_half_0.passive_voltage_mode_mixer_0.lo_logic_1.inverter_NF6_0.vin VSS sky130_fd_pr__nfet_01v8 ad=0.165 pd=1.33 as=0.165 ps=1.33 w=1 l=0.15
X3 VSS di_afe_en iq_modulator_half_1.third_order_mfb_lp_filter_wo_C_0.ota_core_hybrid_bm_0.ota_core_en_n VSS sky130_fd_pr__nfet_01v8_lvt ad=0.435 pd=3.29 as=0.435 ps=3.29 w=3 l=1
X4 di_LO_I VDD iq_modulator_half_0.passive_voltage_mode_mixer_0.lo_logic_1.transmission_gate_wo_dummy_0.v_b VSS sky130_fd_pr__nfet_01v8 ad=0.31 pd=2.62 as=0.165 ps=1.33 w=1 l=0.15
X5 iq_modulator_half_1.third_order_mfb_lp_filter_wo_C_0.ota_core_hybrid_bm_0.inverter_lv_en_NF6_6.vout C3_1x5_1.top iq_modulator_half_1.third_order_mfb_lp_filter_wo_C_0.ota_core_hybrid_bm_0.inverter_lv_en_NF6_1.sky130_fd_pr__nfet_01v8_lvt_WHJEU4_0.S1 VSS sky130_fd_pr__nfet_01v8_lvt ad=0.435 pd=3.29 as=0.435 ps=3.29 w=3 l=1
X6 iq_modulator_half_1.third_order_mfb_lp_filter_wo_C_0.resistors_0/resistors_n_0/sky130_fd_pr__res_xhigh_po_0p35_6YX8Z4_0.R1_123 iq_modulator_half_1.third_order_mfb_lp_filter_wo_C_0.resistors_0/resistors_n_0/sky130_fd_pr__res_xhigh_po_0p35_6YX8Z4_0.R2_124 VSS sky130_fd_pr__res_xhigh_po_0p35 l=2
X7 iq_modulator_half_0.third_order_mfb_lp_filter_wo_C_0.ota_core_hybrid_bm_0.inverter_lv_en_NF6_8.vout iq_modulator_half_0.third_order_mfb_lp_filter_wo_C_0.voutp iq_modulator_half_0.third_order_mfb_lp_filter_wo_C_0.ota_core_hybrid_bm_0.inverter_lv_en_NF6_8.sky130_fd_pr__pfet_01v8_lvt_P4QH36_0.S1 VDD sky130_fd_pr__pfet_01v8_lvt ad=1.305 pd=9.29 as=1.305 ps=9.29 w=9 l=1
X8 vout_RF iq_modulator_half_0.passive_voltage_mode_mixer_0.transmission_gate_w_dummy_2.di_tg_ctrl_n iq_modulator_half_0.third_order_mfb_lp_filter_wo_C_0.voutp VDD sky130_fd_pr__pfet_01v8 ad=0.495 pd=3.33 as=0.495 ps=3.33 w=3 l=0.15
X9 iq_modulator_half_0.third_order_mfb_lp_filter_wo_C_0.vC2n iq_modulator_half_0.third_order_mfb_lp_filter_wo_C_0.vC2p sky130_fd_pr__cap_mim_m3_1 l=3 w=3
X10 VDD iq_modulator_half_1.passive_voltage_mode_mixer_0.lo_logic_0.inverter_NF6_1.vin iq_modulator_half_1.passive_voltage_mode_mixer_0.transmission_gate_w_dummy_0.di_tg_ctrl_n VDD sky130_fd_pr__pfet_01v8 ad=0.495 pd=3.33 as=0.495 ps=3.33 w=3 l=0.15
X11 iq_modulator_half_0.third_order_mfb_lp_filter_wo_C_0.ota_core_hybrid_bm_0.inverter_lv_en_NF6_6.vout iq_modulator_half_0.third_order_mfb_lp_filter_wo_C_0.ota_core_hybrid_bm_0.inverter_lv_en_NF6_6.vout iq_modulator_half_0.third_order_mfb_lp_filter_wo_C_0.ota_core_hybrid_bm_0.inverter_lv_en_NF4_0.sky130_fd_pr__pfet_01v8_lvt_P4JB26_0.S1 VDD sky130_fd_pr__pfet_01v8_lvt ad=1.305 pd=9.29 as=1.305 ps=9.29 w=9 l=1
X12 VSS iq_modulator_half_0.passive_voltage_mode_mixer_0.lo_logic_1.inverter_NF2_1.vin iq_modulator_half_0.passive_voltage_mode_mixer_0.lo_logic_1.buf_cross VSS sky130_fd_pr__nfet_01v8 ad=0.165 pd=1.33 as=0.165 ps=1.33 w=1 l=0.15
X13 iq_modulator_half_1.passive_voltage_mode_mixer_0.lo_logic_1.buf_cross iq_modulator_half_1.passive_voltage_mode_mixer_0.lo_logic_1.inverter_NF2_1.vin VSS VSS sky130_fd_pr__nfet_01v8 ad=0.165 pd=1.33 as=0.165 ps=1.33 w=1 l=0.15
X14 iq_modulator_half_1.third_order_mfb_lp_filter_wo_C_0.resistors_0/resistors_p_0/sky130_fd_pr__res_xhigh_po_0p35_6YX8Z4_0.R1_80 iq_modulator_half_1.third_order_mfb_lp_filter_wo_C_0.resistors_0/resistors_p_0/sky130_fd_pr__res_xhigh_po_0p35_6YX8Z4_0.R2_79 VSS sky130_fd_pr__res_xhigh_po_0p35 l=2
X15 iq_modulator_half_0.third_order_mfb_lp_filter_wo_C_0.ota_core_hybrid_bm_0.inverter_lv_en_NF6_4.sky130_fd_pr__nfet_01v8_lvt_WHJEU4_0.S1 iq_modulator_half_0.third_order_mfb_lp_filter_wo_C_0.ota_core_hybrid_bm_0.inverter_lv_en_NF6_6.vout iq_modulator_half_0.third_order_mfb_lp_filter_wo_C_0.voutn VSS sky130_fd_pr__nfet_01v8_lvt ad=0.435 pd=3.29 as=0.435 ps=3.29 w=3 l=1
X16 iq_modulator_half_1.third_order_mfb_lp_filter_wo_C_0.ota_core_hybrid_bm_0.inverter_lv_en_NF6_1.sky130_fd_pr__pfet_01v8_lvt_P4QH36_0.S1 C3_1x5_1.top iq_modulator_half_1.third_order_mfb_lp_filter_wo_C_0.ota_core_hybrid_bm_0.inverter_lv_en_NF6_6.vout VDD sky130_fd_pr__pfet_01v8_lvt ad=1.305 pd=9.29 as=1.305 ps=9.29 w=9 l=1
X17 iq_modulator_half_0.third_order_mfb_lp_filter_wo_C_0.voutn iq_modulator_half_0.third_order_mfb_lp_filter_wo_C_0.resistors_0/resistors_p_0/sky130_fd_pr__res_xhigh_po_0p35_6YX8Z4_0.R2_99 iq_modulator_half_0.third_order_mfb_lp_filter_wo_C_0.ota_core_hybrid_bm_0.inverter_lv_en_NF6_2.sky130_fd_pr__nfet_01v8_lvt_WHJEU4_0.S1 VSS sky130_fd_pr__nfet_01v8_lvt ad=0.435 pd=3.29 as=0.435 ps=3.29 w=3 l=1
X18 VSS iq_modulator_half_1.passive_voltage_mode_mixer_0.lo_logic_0.inv_cross iq_modulator_half_1.passive_voltage_mode_mixer_0.lo_logic_0.inverter_NF6_1.vin VSS sky130_fd_pr__nfet_01v8 ad=0.165 pd=1.33 as=0.165 ps=1.33 w=1 l=0.15
X19 VDD VDD VDD VDD sky130_fd_pr__pfet_01v8 ad=0.495 pd=3.33 as=279.66 ps=1.9598k w=3 l=0.15
X20 VDD VDD VDD VDD sky130_fd_pr__pfet_01v8 ad=0.495 pd=3.33 as=0 ps=0 w=3 l=0.15
X21 C2_3x7_2.top iq_modulator_half_1.third_order_mfb_lp_filter_wo_C_0.resistors_0/resistors_p_0/sky130_fd_pr__res_xhigh_po_0p35_6YX8Z4_0.R2_37 VSS sky130_fd_pr__res_xhigh_po_0p35 l=2
X22 iq_modulator_half_1.third_order_mfb_lp_filter_wo_C_0.resistors_0/resistors_p_0/sky130_fd_pr__res_xhigh_po_0p35_6YX8Z4_0.R1_112 iq_modulator_half_1.third_order_mfb_lp_filter_wo_C_0.resistors_0/resistors_p_0/sky130_fd_pr__res_xhigh_po_0p35_6YX8Z4_0.R2_111 VSS sky130_fd_pr__res_xhigh_po_0p35 l=2
X23 vout_RF iq_modulator_half_0.passive_voltage_mode_mixer_0.transmission_gate_w_dummy_2.di_tg_ctrl_n vout_RF VSS sky130_fd_pr__nfet_01v8 ad=0.165 pd=1.33 as=18.4 ps=148.8 w=1 l=0.15
X24 vout_RF iq_modulator_half_1.passive_voltage_mode_mixer_0.transmission_gate_w_dummy_0.di_tg_ctrl_n C3_1x5_3.bottom VDD sky130_fd_pr__pfet_01v8 ad=0.495 pd=3.33 as=0.495 ps=3.33 w=3 l=0.15
X25 iq_modulator_half_1.third_order_mfb_lp_filter_wo_C_0.resistors_0/resistors_p_0/sky130_fd_pr__res_xhigh_po_0p35_6YX8Z4_0.R1_26 iq_modulator_half_1.third_order_mfb_lp_filter_wo_C_0.resistors_0/resistors_p_0/sky130_fd_pr__res_xhigh_po_0p35_6YX8Z4_0.R2_27 VSS sky130_fd_pr__res_xhigh_po_0p35 l=2
X26 VDD VDD VDD VDD sky130_fd_pr__pfet_01v8 ad=0.495 pd=3.33 as=0 ps=0 w=3 l=0.15
X27 vout_RF iq_modulator_half_0.passive_voltage_mode_mixer_0.transmission_gate_w_dummy_0.di_tg_ctrl_n iq_modulator_half_0.third_order_mfb_lp_filter_wo_C_0.voutn VDD sky130_fd_pr__pfet_01v8 ad=0.495 pd=3.33 as=0.495 ps=3.33 w=3 l=0.15
X28 C3_1x5_1.bottom C3_1x5_1.top iq_modulator_half_1.third_order_mfb_lp_filter_wo_C_0.ota_core_hybrid_bm_0.inverter_lv_en_NF6_3.sky130_fd_pr__nfet_01v8_lvt_WHJEU4_0.S1 VSS sky130_fd_pr__nfet_01v8_lvt ad=0.435 pd=3.29 as=0.435 ps=3.29 w=3 l=1
X29 C3_1x5_1.bottom iq_modulator_half_1.passive_voltage_mode_mixer_0.transmission_gate_w_dummy_2.di_tg_ctrl_n vout_RF VDD sky130_fd_pr__pfet_01v8 ad=0.495 pd=3.33 as=0.495 ps=3.33 w=3 l=0.15
X30 C2_3x7_2.top C2_3x7_2.bottom sky130_fd_pr__cap_mim_m3_1 l=3 w=3
X31 iq_modulator_half_0.third_order_mfb_lp_filter_wo_C_0.resistors_0/resistors_n_0/sky130_fd_pr__res_xhigh_po_0p35_6YX8Z4_0.R1_113 iq_modulator_half_0.third_order_mfb_lp_filter_wo_C_0.resistors_0/resistors_n_0/sky130_fd_pr__res_xhigh_po_0p35_6YX8Z4_0.R2_114 VSS sky130_fd_pr__res_xhigh_po_0p35 l=2
X32 C3_1x5_1.bottom iq_modulator_half_1.passive_voltage_mode_mixer_0.transmission_gate_w_dummy_2.di_tg_ctrl C3_1x5_1.bottom VDD sky130_fd_pr__pfet_01v8 ad=0.495 pd=3.33 as=29.46 ps=204.67999 w=3 l=0.15
X33 VDD iq_modulator_half_0.passive_voltage_mode_mixer_0.lo_logic_1.inv_cross iq_modulator_half_0.passive_voltage_mode_mixer_0.lo_logic_1.buf_cross VDD sky130_fd_pr__pfet_01v8 ad=0.495 pd=3.33 as=3.81 ps=8.54 w=3 l=0.15
X34 iq_modulator_half_1.third_order_mfb_lp_filter_wo_C_0.resistors_0/resistors_n_0/sky130_fd_pr__res_xhigh_po_0p35_6YX8Z4_0.R1_75 iq_modulator_half_1.third_order_mfb_lp_filter_wo_C_0.resistors_0/resistors_n_0/sky130_fd_pr__res_xhigh_po_0p35_6YX8Z4_0.R2_74 VSS sky130_fd_pr__res_xhigh_po_0p35 l=2
X35 C1_5x7_2.bottom C1_5x7_2.top sky130_fd_pr__cap_mim_m3_1 l=3 w=3
X36 iq_modulator_half_0.third_order_mfb_lp_filter_wo_C_0.ota_core_hybrid_bm_0.inverter_lv_en_NF6_8.sky130_fd_pr__pfet_01v8_lvt_P4QH36_0.S1 iq_modulator_half_0.third_order_mfb_lp_filter_wo_C_0.voutp iq_modulator_half_0.third_order_mfb_lp_filter_wo_C_0.ota_core_hybrid_bm_0.inverter_lv_en_NF6_8.vout VDD sky130_fd_pr__pfet_01v8_lvt ad=1.305 pd=9.29 as=1.305 ps=9.29 w=9 l=1
X37 iq_modulator_half_0.third_order_mfb_lp_filter_wo_C_0.ota_core_hybrid_bm_0.inverter_lv_en_NF4_0.sky130_fd_pr__pfet_01v8_lvt_P4JB26_0.S1 iq_modulator_half_0.third_order_mfb_lp_filter_wo_C_0.ota_core_hybrid_bm_0.inverter_lv_en_NF6_6.vout iq_modulator_half_0.third_order_mfb_lp_filter_wo_C_0.ota_core_hybrid_bm_0.inverter_lv_en_NF6_6.vout VDD sky130_fd_pr__pfet_01v8_lvt ad=1.305 pd=9.29 as=1.305 ps=9.29 w=9 l=1
X38 iq_modulator_half_0.third_order_mfb_lp_filter_wo_C_0.resistors_0/resistors_n_0/sky130_fd_pr__res_xhigh_po_0p35_6YX8Z4_0.R1_29 iq_modulator_half_0.third_order_mfb_lp_filter_wo_C_0.resistors_0/resistors_n_0/sky130_fd_pr__res_xhigh_po_0p35_6YX8Z4_0.R2_28 VSS sky130_fd_pr__res_xhigh_po_0p35 l=2
X39 iq_modulator_half_0.third_order_mfb_lp_filter_wo_C_0.ota_core_hybrid_bm_0.inverter_lv_en_NF6_6.vout iq_modulator_half_0.third_order_mfb_lp_filter_wo_C_0.resistors_0/resistors_p_0/sky130_fd_pr__res_xhigh_po_0p35_6YX8Z4_0.R2_99 iq_modulator_half_0.third_order_mfb_lp_filter_wo_C_0.ota_core_hybrid_bm_0.inverter_lv_en_NF6_0.sky130_fd_pr__pfet_01v8_lvt_P4QH36_0.S1 VDD sky130_fd_pr__pfet_01v8_lvt ad=1.305 pd=9.29 as=1.305 ps=9.29 w=9 l=1
X40 vout_RF iq_modulator_half_1.passive_voltage_mode_mixer_0.transmission_gate_w_dummy_0.di_tg_ctrl C3_1x5_3.bottom VSS sky130_fd_pr__nfet_01v8 ad=0.165 pd=1.33 as=0.165 ps=1.33 w=1 l=0.15
X41 iq_modulator_half_1.third_order_mfb_lp_filter_wo_C_0.resistors_0/resistors_n_0/sky130_fd_pr__res_xhigh_po_0p35_6YX8Z4_0.R1_101 iq_modulator_half_1.third_order_mfb_lp_filter_wo_C_0.resistors_0/resistors_n_0/sky130_fd_pr__res_xhigh_po_0p35_6YX8Z4_0.R2_102 VSS sky130_fd_pr__res_xhigh_po_0p35 l=2
X42 iq_modulator_half_1.third_order_mfb_lp_filter_wo_C_0.resistors_0/resistors_n_0/sky130_fd_pr__res_xhigh_po_0p35_6YX8Z4_0.R1_53 iq_modulator_half_1.third_order_mfb_lp_filter_wo_C_0.resistors_0/resistors_n_0/sky130_fd_pr__res_xhigh_po_0p35_6YX8Z4_0.R2_52 VSS sky130_fd_pr__res_xhigh_po_0p35 l=2
X43 iq_modulator_half_1.third_order_mfb_lp_filter_wo_C_0.resistors_0/resistors_n_0/sky130_fd_pr__res_xhigh_po_0p35_6YX8Z4_0.R1_87 iq_modulator_half_1.third_order_mfb_lp_filter_wo_C_0.resistors_0/resistors_n_0/sky130_fd_pr__res_xhigh_po_0p35_6YX8Z4_0.R2_88 VSS sky130_fd_pr__res_xhigh_po_0p35 l=2
X44 iq_modulator_half_0.third_order_mfb_lp_filter_wo_C_0.voutn iq_modulator_half_0.third_order_mfb_lp_filter_wo_C_0.ota_core_hybrid_bm_0.inverter_lv_en_NF6_6.vout iq_modulator_half_0.third_order_mfb_lp_filter_wo_C_0.ota_core_hybrid_bm_0.inverter_lv_en_NF6_4.sky130_fd_pr__nfet_01v8_lvt_WHJEU4_0.S1 VSS sky130_fd_pr__nfet_01v8_lvt ad=0.435 pd=3.29 as=0.435 ps=3.29 w=3 l=1
X45 iq_modulator_half_0.third_order_mfb_lp_filter_wo_C_0.vC1n iq_modulator_half_0.third_order_mfb_lp_filter_wo_C_0.vC1p sky130_fd_pr__cap_mim_m3_1 l=3 w=3
X46 iq_modulator_half_1.third_order_mfb_lp_filter_wo_C_0.resistors_0/resistors_n_0/sky130_fd_pr__res_xhigh_po_0p35_6YX8Z4_0.R1_73 iq_modulator_half_1.third_order_mfb_lp_filter_wo_C_0.resistors_0/resistors_n_0/sky130_fd_pr__res_xhigh_po_0p35_6YX8Z4_0.R2_74 VSS sky130_fd_pr__res_xhigh_po_0p35 l=2
X47 iq_modulator_half_1.third_order_mfb_lp_filter_wo_C_0.resistors_0/resistors_n_0/sky130_fd_pr__res_xhigh_po_0p35_6YX8Z4_0.R1_39 iq_modulator_half_1.third_order_mfb_lp_filter_wo_C_0.resistors_0/resistors_n_0/sky130_fd_pr__res_xhigh_po_0p35_6YX8Z4_0.R2_38 VSS sky130_fd_pr__res_xhigh_po_0p35 l=2
X48 VDD iq_modulator_half_0.third_order_mfb_lp_filter_wo_C_0.ota_core_hybrid_bm_0.ota_core_en_n iq_modulator_half_0.third_order_mfb_lp_filter_wo_C_0.ota_core_hybrid_bm_0.inverter_lv_en_NF6_3.sky130_fd_pr__pfet_01v8_lvt_P4QH36_0.S1 VDD sky130_fd_pr__pfet_01v8_lvt ad=2.61 pd=18.58 as=1.305 ps=9.29 w=9 l=1
X49 iq_modulator_half_0.third_order_mfb_lp_filter_wo_C_0.ota_core_hybrid_bm_0.inverter_lv_en_NF6_2.sky130_fd_pr__nfet_01v8_lvt_WHJEU4_0.S1 VDD VSS VSS sky130_fd_pr__nfet_01v8_lvt ad=0.435 pd=3.29 as=0.87 ps=6.58 w=3 l=1
X50 C3_1x5_1.bottom iq_modulator_half_1.passive_voltage_mode_mixer_0.transmission_gate_w_dummy_2.di_tg_ctrl C3_1x5_1.bottom VDD sky130_fd_pr__pfet_01v8 ad=0.93 pd=6.62 as=0 ps=0 w=3 l=0.15
X51 iq_modulator_half_1.third_order_mfb_lp_filter_wo_C_0.resistors_0/resistors_n_0/sky130_fd_pr__res_xhigh_po_0p35_6YX8Z4_0.R1_127 iq_modulator_half_1.third_order_mfb_lp_filter_wo_C_0.resistors_0/resistors_n_0/sky130_fd_pr__res_xhigh_po_0p35_6YX8Z4_0.R2_128 VSS sky130_fd_pr__res_xhigh_po_0p35 l=2
X52 iq_modulator_half_0.third_order_mfb_lp_filter_wo_C_0.resistors_0/resistors_n_0/sky130_fd_pr__res_xhigh_po_0p35_6YX8Z4_0.R1_127 iq_modulator_half_0.third_order_mfb_lp_filter_wo_C_0.resistors_0/resistors_n_0/sky130_fd_pr__res_xhigh_po_0p35_6YX8Z4_0.R2_126 VSS sky130_fd_pr__res_xhigh_po_0p35 l=2
X53 iq_modulator_half_0.passive_voltage_mode_mixer_0.transmission_gate_w_dummy_2.di_tg_ctrl iq_modulator_half_0.passive_voltage_mode_mixer_0.lo_logic_1.inverter_NF6_0.vin VSS VSS sky130_fd_pr__nfet_01v8 ad=0.165 pd=1.33 as=0.165 ps=1.33 w=1 l=0.15
X54 iq_modulator_half_1.third_order_mfb_lp_filter_wo_C_0.ota_core_hybrid_bm_0.inverter_lv_en_NF6_2.sky130_fd_pr__nfet_01v8_lvt_WHJEU4_0.S1 C3_1x5_3.top C3_1x5_3.bottom VSS sky130_fd_pr__nfet_01v8_lvt ad=0.435 pd=3.29 as=0.435 ps=3.29 w=3 l=1
X55 iq_modulator_half_0.third_order_mfb_lp_filter_wo_C_0.ota_core_hybrid_bm_0.inverter_lv_en_NF6_8.vout iq_modulator_half_0.third_order_mfb_lp_filter_wo_C_0.ota_core_hybrid_bm_0.inverter_lv_en_NF6_8.vout iq_modulator_half_0.third_order_mfb_lp_filter_wo_C_0.ota_core_hybrid_bm_0.inverter_lv_en_NF4_1.sky130_fd_pr__nfet_01v8_lvt_XCBGUP_0.S1 VSS sky130_fd_pr__nfet_01v8_lvt ad=0.435 pd=3.29 as=0.435 ps=3.29 w=3 l=1
X56 iq_modulator_half_0.third_order_mfb_lp_filter_wo_C_0.vC1n iq_modulator_half_0.third_order_mfb_lp_filter_wo_C_0.vC1p sky130_fd_pr__cap_mim_m3_1 l=3 w=3
X57 C3_1x5_1.bottom iq_modulator_half_1.passive_voltage_mode_mixer_0.transmission_gate_w_dummy_2.di_tg_ctrl vout_RF VSS sky130_fd_pr__nfet_01v8 ad=0.165 pd=1.33 as=0.165 ps=1.33 w=1 l=0.15
X58 C2_3x7_2.top C2_3x7_2.bottom sky130_fd_pr__cap_mim_m3_1 l=3 w=3
X59 C3_1x5_1.bottom iq_modulator_half_1.passive_voltage_mode_mixer_0.transmission_gate_w_dummy_2.di_tg_ctrl_n C3_1x5_1.bottom VSS sky130_fd_pr__nfet_01v8 ad=0.165 pd=1.33 as=9.82 ps=76.68 w=1 l=0.15
X60 iq_modulator_half_0.third_order_mfb_lp_filter_wo_C_0.vC1p iq_modulator_half_0.third_order_mfb_lp_filter_wo_C_0.vC1n sky130_fd_pr__cap_mim_m3_1 l=3 w=3
X61 iq_modulator_half_0.third_order_mfb_lp_filter_wo_C_0.vC1n iq_modulator_half_0.third_order_mfb_lp_filter_wo_C_0.vC1p sky130_fd_pr__cap_mim_m3_1 l=3 w=3
X62 iq_modulator_half_1.passive_voltage_mode_mixer_0.lo_logic_0.transmission_gate_wo_dummy_0.v_b VSS di_LO_QX VDD sky130_fd_pr__pfet_01v8 ad=0.495 pd=3.33 as=0.93 ps=6.62 w=3 l=0.15
X63 C1_5x7_2.bottom C1_5x7_2.top sky130_fd_pr__cap_mim_m3_1 l=3 w=3
X64 iq_modulator_half_1.third_order_mfb_lp_filter_wo_C_0.ota_core_hybrid_bm_0.inverter_lv_en_NF6_8.vout C3_1x5_3.bottom iq_modulator_half_1.third_order_mfb_lp_filter_wo_C_0.ota_core_hybrid_bm_0.inverter_lv_en_NF6_7.sky130_fd_pr__nfet_01v8_lvt_WHJEU4_0.S1 VSS sky130_fd_pr__nfet_01v8_lvt ad=0.435 pd=3.29 as=0.435 ps=3.29 w=3 l=1
X65 iq_modulator_half_0.passive_voltage_mode_mixer_0.transmission_gate_w_dummy_0.di_tg_ctrl_n iq_modulator_half_0.passive_voltage_mode_mixer_0.lo_logic_0.inverter_NF6_1.vin VDD VDD sky130_fd_pr__pfet_01v8 ad=0.495 pd=3.33 as=0.495 ps=3.33 w=3 l=0.15
X66 iq_modulator_half_0.third_order_mfb_lp_filter_wo_C_0.vC2p iq_modulator_half_0.third_order_mfb_lp_filter_wo_C_0.vC2n sky130_fd_pr__cap_mim_m3_1 l=3 w=3
X67 iq_modulator_half_0.third_order_mfb_lp_filter_wo_C_0.resistors_0/resistors_p_0/sky130_fd_pr__res_xhigh_po_0p35_6YX8Z4_0.R1_112 iq_modulator_half_0.third_order_mfb_lp_filter_wo_C_0.resistors_0/resistors_p_0/sky130_fd_pr__res_xhigh_po_0p35_6YX8Z4_0.R2_113 VSS sky130_fd_pr__res_xhigh_po_0p35 l=2
X68 C1_5x7_2.bottom C1_5x7_2.top sky130_fd_pr__cap_mim_m3_1 l=3 w=3
X69 iq_modulator_half_0.third_order_mfb_lp_filter_wo_C_0.resistors_0/resistors_n_0/sky130_fd_pr__res_xhigh_po_0p35_6YX8Z4_0.R1_109 iq_modulator_half_0.third_order_mfb_lp_filter_wo_C_0.resistors_0/resistors_n_0/sky130_fd_pr__res_xhigh_po_0p35_6YX8Z4_0.R2_110 VSS sky130_fd_pr__res_xhigh_po_0p35 l=2
X70 C3_1x5_1.bottom iq_modulator_half_1.passive_voltage_mode_mixer_0.transmission_gate_w_dummy_2.di_tg_ctrl_n C3_1x5_1.bottom VSS sky130_fd_pr__nfet_01v8 ad=0.31 pd=2.62 as=0 ps=0 w=1 l=0.15
X71 VDD iq_modulator_half_0.passive_voltage_mode_mixer_0.lo_logic_0.inverter_NF6_0.vin iq_modulator_half_0.passive_voltage_mode_mixer_0.transmission_gate_w_dummy_0.di_tg_ctrl VDD sky130_fd_pr__pfet_01v8 ad=0.495 pd=3.33 as=0.495 ps=3.33 w=3 l=0.15
X72 iq_modulator_half_1.third_order_mfb_lp_filter_wo_C_0.resistors_0/resistors_p_0/sky130_fd_pr__res_xhigh_po_0p35_6YX8Z4_0.R1_102 iq_modulator_half_1.third_order_mfb_lp_filter_wo_C_0.resistors_0/resistors_p_0/sky130_fd_pr__res_xhigh_po_0p35_6YX8Z4_0.R2_103 VSS sky130_fd_pr__res_xhigh_po_0p35 l=2
X73 C1_5x7_2.top C1_5x7_2.bottom sky130_fd_pr__cap_mim_m3_1 l=3 w=3
X74 iq_modulator_half_0.third_order_mfb_lp_filter_wo_C_0.voutn iq_modulator_half_0.passive_voltage_mode_mixer_0.transmission_gate_w_dummy_0.di_tg_ctrl_n vout_RF VDD sky130_fd_pr__pfet_01v8 ad=0.495 pd=3.33 as=0.495 ps=3.33 w=3 l=0.15
X75 iq_modulator_half_0.third_order_mfb_lp_filter_wo_C_0.resistors_0/resistors_n_0/sky130_fd_pr__res_xhigh_po_0p35_6YX8Z4_0.R1_25 iq_modulator_half_0.third_order_mfb_lp_filter_wo_C_0.resistors_0/resistors_n_0/sky130_fd_pr__res_xhigh_po_0p35_6YX8Z4_0.R2_24 VSS sky130_fd_pr__res_xhigh_po_0p35 l=2
X76 iq_modulator_half_0.third_order_mfb_lp_filter_wo_C_0.ota_core_hybrid_bm_0.inverter_lv_en_NF6_8.vout iq_modulator_half_0.third_order_mfb_lp_filter_wo_C_0.voutp iq_modulator_half_0.third_order_mfb_lp_filter_wo_C_0.ota_core_hybrid_bm_0.inverter_lv_en_NF6_8.sky130_fd_pr__pfet_01v8_lvt_P4QH36_0.S1 VDD sky130_fd_pr__pfet_01v8_lvt ad=1.305 pd=9.29 as=1.305 ps=9.29 w=9 l=1
X77 vout_RF iq_modulator_half_1.passive_voltage_mode_mixer_0.transmission_gate_w_dummy_2.di_tg_ctrl vout_RF VDD sky130_fd_pr__pfet_01v8 ad=0.495 pd=3.33 as=55.2 ps=372.79999 w=3 l=0.15
X78 vout_RF iq_modulator_half_0.passive_voltage_mode_mixer_0.transmission_gate_w_dummy_0.di_tg_ctrl iq_modulator_half_0.third_order_mfb_lp_filter_wo_C_0.voutn VSS sky130_fd_pr__nfet_01v8 ad=0.165 pd=1.33 as=0.165 ps=1.33 w=1 l=0.15
X79 VDD VSS sky130_fd_pr__cap_mim_m3_1 l=3 w=3
X80 iq_modulator_half_0.third_order_mfb_lp_filter_wo_C_0.ota_core_hybrid_bm_0.inverter_lv_en_NF6_0.sky130_fd_pr__pfet_01v8_lvt_P4QH36_0.S1 iq_modulator_half_0.third_order_mfb_lp_filter_wo_C_0.resistors_0/resistors_p_0/sky130_fd_pr__res_xhigh_po_0p35_6YX8Z4_0.R2_99 iq_modulator_half_0.third_order_mfb_lp_filter_wo_C_0.ota_core_hybrid_bm_0.inverter_lv_en_NF6_6.vout VDD sky130_fd_pr__pfet_01v8_lvt ad=1.305 pd=9.29 as=1.305 ps=9.29 w=9 l=1
X81 VDD VDD VDD VDD sky130_fd_pr__pfet_01v8_lvt ad=2.61 pd=18.58 as=0 ps=0 w=9 l=1
X82 iq_modulator_half_1.third_order_mfb_lp_filter_wo_C_0.resistors_0/resistors_n_0/sky130_fd_pr__res_xhigh_po_0p35_6YX8Z4_0.R1_11 iq_modulator_half_1.third_order_mfb_lp_filter_wo_C_0.resistors_0/resistors_n_0/sky130_fd_pr__res_xhigh_po_0p35_6YX8Z4_0.R2_12 VSS sky130_fd_pr__res_xhigh_po_0p35 l=2
X83 iq_modulator_half_0.third_order_mfb_lp_filter_wo_C_0.ota_core_hybrid_bm_0.inverter_lv_en_NF6_3.sky130_fd_pr__pfet_01v8_lvt_P4QH36_0.S1 iq_modulator_half_0.third_order_mfb_lp_filter_wo_C_0.resistors_0/resistors_n_0/sky130_fd_pr__res_xhigh_po_0p35_6YX8Z4_0.R1_99 iq_modulator_half_0.third_order_mfb_lp_filter_wo_C_0.voutp VDD sky130_fd_pr__pfet_01v8_lvt ad=1.305 pd=9.29 as=1.305 ps=9.29 w=9 l=1
X84 VSS iq_modulator_half_1.passive_voltage_mode_mixer_0.lo_logic_1.inverter_NF6_0.vin iq_modulator_half_1.passive_voltage_mode_mixer_0.transmission_gate_w_dummy_2.di_tg_ctrl VSS sky130_fd_pr__nfet_01v8 ad=0.165 pd=1.33 as=0.165 ps=1.33 w=1 l=0.15
X85 VSS iq_modulator_half_1.passive_voltage_mode_mixer_0.lo_logic_1.inverter_NF6_1.vin iq_modulator_half_1.passive_voltage_mode_mixer_0.transmission_gate_w_dummy_2.di_tg_ctrl_n VSS sky130_fd_pr__nfet_01v8 ad=0.165 pd=1.33 as=0.165 ps=1.33 w=1 l=0.15
X86 VSS VSS VSS VSS sky130_fd_pr__nfet_01v8 ad=0.165 pd=1.33 as=93.22 ps=735.79999 w=1 l=0.15
X87 iq_modulator_half_0.third_order_mfb_lp_filter_wo_C_0.ota_core_hybrid_bm_0.inverter_lv_en_NF6_6.sky130_fd_pr__pfet_01v8_lvt_P4QH36_0.S1 iq_modulator_half_0.third_order_mfb_lp_filter_wo_C_0.ota_core_hybrid_bm_0.inverter_lv_en_NF6_8.vout iq_modulator_half_0.third_order_mfb_lp_filter_wo_C_0.ota_core_hybrid_bm_0.inverter_lv_en_NF6_6.vout VDD sky130_fd_pr__pfet_01v8_lvt ad=1.305 pd=9.29 as=1.305 ps=9.29 w=9 l=1
X88 iq_modulator_half_1.third_order_mfb_lp_filter_wo_C_0.resistors_0/resistors_p_0/sky130_fd_pr__res_xhigh_po_0p35_6YX8Z4_0.R1_50 iq_modulator_half_1.third_order_mfb_lp_filter_wo_C_0.resistors_0/resistors_p_0/sky130_fd_pr__res_xhigh_po_0p35_6YX8Z4_0.R2_49 VSS sky130_fd_pr__res_xhigh_po_0p35 l=2
X89 vout_RF iq_modulator_half_1.passive_voltage_mode_mixer_0.transmission_gate_w_dummy_2.di_tg_ctrl_n C3_1x5_1.bottom VDD sky130_fd_pr__pfet_01v8 ad=0.495 pd=3.33 as=0.495 ps=3.33 w=3 l=0.15
X90 iq_modulator_half_1.third_order_mfb_lp_filter_wo_C_0.resistors_0/resistors_n_0/sky130_fd_pr__res_xhigh_po_0p35_6YX8Z4_0.R1_91 iq_modulator_half_1.third_order_mfb_lp_filter_wo_C_0.resistors_0/resistors_n_0/sky130_fd_pr__res_xhigh_po_0p35_6YX8Z4_0.R2_92 VSS sky130_fd_pr__res_xhigh_po_0p35 l=2
X91 iq_modulator_half_1.third_order_mfb_lp_filter_wo_C_0.resistors_0/resistors_n_0/sky130_fd_pr__res_xhigh_po_0p35_6YX8Z4_0.R1_11 iq_modulator_half_1.third_order_mfb_lp_filter_wo_C_0.resistors_0/resistors_n_0/sky130_fd_pr__res_xhigh_po_0p35_6YX8Z4_0.R2_10 VSS sky130_fd_pr__res_xhigh_po_0p35 l=2
X92 vout_RF iq_modulator_half_1.passive_voltage_mode_mixer_0.transmission_gate_w_dummy_2.di_tg_ctrl_n vout_RF VSS sky130_fd_pr__nfet_01v8 ad=0.165 pd=1.33 as=0 ps=0 w=1 l=0.15
X93 iq_modulator_half_0.third_order_mfb_lp_filter_wo_C_0.vC1n iq_modulator_half_0.third_order_mfb_lp_filter_wo_C_0.vC1p sky130_fd_pr__cap_mim_m3_1 l=3 w=3
X94 iq_modulator_half_0.third_order_mfb_lp_filter_wo_C_0.resistors_0/resistors_p_0/sky130_fd_pr__res_xhigh_po_0p35_6YX8Z4_0.R1_72 iq_modulator_half_0.third_order_mfb_lp_filter_wo_C_0.resistors_0/resistors_p_0/sky130_fd_pr__res_xhigh_po_0p35_6YX8Z4_0.R2_71 VSS sky130_fd_pr__res_xhigh_po_0p35 l=2
X95 iq_modulator_half_1.third_order_mfb_lp_filter_wo_C_0.resistors_0/resistors_n_0/sky130_fd_pr__res_xhigh_po_0p35_6YX8Z4_0.R1_105 iq_modulator_half_1.third_order_mfb_lp_filter_wo_C_0.resistors_0/resistors_n_0/sky130_fd_pr__res_xhigh_po_0p35_6YX8Z4_0.R2_104 VSS sky130_fd_pr__res_xhigh_po_0p35 l=2
X96 iq_modulator_half_1.third_order_mfb_lp_filter_wo_C_0.resistors_0/resistors_n_0/sky130_fd_pr__res_xhigh_po_0p35_6YX8Z4_0.R1_91 iq_modulator_half_1.third_order_mfb_lp_filter_wo_C_0.resistors_0/resistors_n_0/sky130_fd_pr__res_xhigh_po_0p35_6YX8Z4_0.R2_90 VSS sky130_fd_pr__res_xhigh_po_0p35 l=2
X97 iq_modulator_half_1.third_order_mfb_lp_filter_wo_C_0.ota_core_hybrid_bm_0.inverter_lv_en_NF6_0.sky130_fd_pr__pfet_01v8_lvt_P4QH36_0.S1 iq_modulator_half_1.third_order_mfb_lp_filter_wo_C_0.ota_core_hybrid_bm_0.ota_core_en_n VDD VDD sky130_fd_pr__pfet_01v8_lvt ad=1.305 pd=9.29 as=2.61 ps=18.58 w=9 l=1
X98 VDD VDD VDD VDD sky130_fd_pr__pfet_01v8 ad=0.495 pd=3.33 as=0 ps=0 w=3 l=0.15
X99 VSS VSS VSS VSS sky130_fd_pr__nfet_01v8 ad=0.165 pd=1.33 as=0 ps=0 w=1 l=0.15
X100 VDD iq_modulator_half_0.passive_voltage_mode_mixer_0.lo_logic_1.inverter_NF6_0.vin iq_modulator_half_0.passive_voltage_mode_mixer_0.transmission_gate_w_dummy_2.di_tg_ctrl VDD sky130_fd_pr__pfet_01v8 ad=0.495 pd=3.33 as=0.495 ps=3.33 w=3 l=0.15
X101 iq_modulator_half_0.third_order_mfb_lp_filter_wo_C_0.vC2p iq_modulator_half_0.third_order_mfb_lp_filter_wo_C_0.resistors_0/resistors_p_0/sky130_fd_pr__res_xhigh_po_0p35_6YX8Z4_0.R2_35 VSS sky130_fd_pr__res_xhigh_po_0p35 l=2
X102 iq_modulator_half_0.third_order_mfb_lp_filter_wo_C_0.resistors_0/resistors_p_0/sky130_fd_pr__res_xhigh_po_0p35_6YX8Z4_0.R1_70 iq_modulator_half_0.third_order_mfb_lp_filter_wo_C_0.resistors_0/resistors_p_0/sky130_fd_pr__res_xhigh_po_0p35_6YX8Z4_0.R2_71 VSS sky130_fd_pr__res_xhigh_po_0p35 l=2
X103 iq_modulator_half_0.third_order_mfb_lp_filter_wo_C_0.ota_core_hybrid_bm_0.inverter_lv_en_NF6_3.sky130_fd_pr__nfet_01v8_lvt_WHJEU4_0.S1 VDD VSS VSS sky130_fd_pr__nfet_01v8_lvt ad=0.435 pd=3.29 as=0.87 ps=6.58 w=3 l=1
X104 iq_modulator_half_0.third_order_mfb_lp_filter_wo_C_0.resistors_0/resistors_p_0/sky130_fd_pr__res_xhigh_po_0p35_6YX8Z4_0.R1_124 iq_modulator_half_0.third_order_mfb_lp_filter_wo_C_0.resistors_0/resistors_p_0/sky130_fd_pr__res_xhigh_po_0p35_6YX8Z4_0.R2_125 VSS sky130_fd_pr__res_xhigh_po_0p35 l=2
X105 iq_modulator_half_1.passive_voltage_mode_mixer_0.lo_logic_1.inverter_NF6_1.vin iq_modulator_half_1.passive_voltage_mode_mixer_0.lo_logic_1.inv_cross VSS VSS sky130_fd_pr__nfet_01v8 ad=0.165 pd=1.33 as=0.165 ps=1.33 w=1 l=0.15
X106 vout_RF iq_modulator_half_1.passive_voltage_mode_mixer_0.transmission_gate_w_dummy_2.di_tg_ctrl C3_1x5_1.bottom VSS sky130_fd_pr__nfet_01v8 ad=0.165 pd=1.33 as=0.165 ps=1.33 w=1 l=0.15
X107 C1_5x7_2.bottom C1_5x7_2.top sky130_fd_pr__cap_mim_m3_1 l=3 w=3
X108 iq_modulator_half_1.passive_voltage_mode_mixer_0.transmission_gate_w_dummy_0.di_tg_ctrl iq_modulator_half_1.passive_voltage_mode_mixer_0.lo_logic_0.inverter_NF6_0.vin VSS VSS sky130_fd_pr__nfet_01v8 ad=0.165 pd=1.33 as=0.165 ps=1.33 w=1 l=0.15
X109 VSS VSS VSS VSS sky130_fd_pr__nfet_01v8 ad=0.31 pd=2.62 as=0 ps=0 w=1 l=0.15
X110 vout_RF iq_modulator_half_0.passive_voltage_mode_mixer_0.transmission_gate_w_dummy_0.di_tg_ctrl vout_RF VDD sky130_fd_pr__pfet_01v8 ad=0.495 pd=3.33 as=0 ps=0 w=3 l=0.15
X111 iq_modulator_half_0.third_order_mfb_lp_filter_wo_C_0.resistors_0/resistors_p_0/sky130_fd_pr__res_xhigh_po_0p35_6YX8Z4_0.R1_124 iq_modulator_half_0.third_order_mfb_lp_filter_wo_C_0.resistors_0/resistors_p_0/sky130_fd_pr__res_xhigh_po_0p35_6YX8Z4_0.R2_123 VSS sky130_fd_pr__res_xhigh_po_0p35 l=2
X112 iq_modulator_half_0.third_order_mfb_lp_filter_wo_C_0.voutn iq_modulator_half_0.passive_voltage_mode_mixer_0.transmission_gate_w_dummy_0.di_tg_ctrl vout_RF VSS sky130_fd_pr__nfet_01v8 ad=0.165 pd=1.33 as=0.165 ps=1.33 w=1 l=0.15
X113 VDD di_LO_IX iq_modulator_half_0.passive_voltage_mode_mixer_0.lo_logic_0.inverter_NF2_1.vin VDD sky130_fd_pr__pfet_01v8 ad=0.495 pd=3.33 as=0.495 ps=3.33 w=3 l=0.15
X114 iq_modulator_half_1.passive_voltage_mode_mixer_0.lo_logic_0.transmission_gate_wo_dummy_0.v_b VDD di_LO_QX VSS sky130_fd_pr__nfet_01v8 ad=0.165 pd=1.33 as=0.31 ps=2.62 w=1 l=0.15
X115 VDD VDD VDD VDD sky130_fd_pr__pfet_01v8 ad=0.495 pd=3.33 as=0 ps=0 w=3 l=0.15
X116 C3_1x5_1.bottom iq_modulator_half_1.passive_voltage_mode_mixer_0.transmission_gate_w_dummy_2.di_tg_ctrl_n vout_RF VDD sky130_fd_pr__pfet_01v8 ad=0.495 pd=3.33 as=0.495 ps=3.33 w=3 l=0.15
X117 iq_modulator_half_0.third_order_mfb_lp_filter_wo_C_0.voutp iq_modulator_half_0.passive_voltage_mode_mixer_0.transmission_gate_w_dummy_2.di_tg_ctrl vout_RF VSS sky130_fd_pr__nfet_01v8 ad=0.165 pd=1.33 as=0.165 ps=1.33 w=1 l=0.15
X118 iq_modulator_half_1.third_order_mfb_lp_filter_wo_C_0.resistors_0/resistors_p_0/sky130_fd_pr__res_xhigh_po_0p35_6YX8Z4_0.R1_132 iq_modulator_half_1.third_order_mfb_lp_filter_wo_C_0.resistors_0/resistors_p_0/sky130_fd_pr__res_xhigh_po_0p35_6YX8Z4_0.R2_133 VSS sky130_fd_pr__res_xhigh_po_0p35 l=2
X119 iq_modulator_half_0.third_order_mfb_lp_filter_wo_C_0.vC2n iq_modulator_half_0.third_order_mfb_lp_filter_wo_C_0.vC2p sky130_fd_pr__cap_mim_m3_1 l=3 w=3
X120 iq_modulator_half_0.third_order_mfb_lp_filter_wo_C_0.ota_core_hybrid_bm_0.inverter_lv_en_NF4_0.sky130_fd_pr__pfet_01v8_lvt_P4JB26_0.S1 iq_modulator_half_0.third_order_mfb_lp_filter_wo_C_0.ota_core_hybrid_bm_0.ota_core_en_n VDD VDD sky130_fd_pr__pfet_01v8_lvt ad=1.305 pd=9.29 as=2.61 ps=18.58 w=9 l=1
X121 C2_3x7_2.top C2_3x7_2.bottom sky130_fd_pr__cap_mim_m3_1 l=3 w=3
X122 iq_modulator_half_0.passive_voltage_mode_mixer_0.transmission_gate_w_dummy_0.di_tg_ctrl_n iq_modulator_half_0.passive_voltage_mode_mixer_0.lo_logic_0.inverter_NF6_1.vin VSS VSS sky130_fd_pr__nfet_01v8 ad=0.165 pd=1.33 as=0.165 ps=1.33 w=1 l=0.15
X123 iq_modulator_half_0.passive_voltage_mode_mixer_0.lo_logic_0.inverter_NF2_1.vin di_LO_IX VDD VDD sky130_fd_pr__pfet_01v8 ad=0.495 pd=3.33 as=0.495 ps=3.33 w=3 l=0.15
X124 iq_modulator_half_0.third_order_mfb_lp_filter_wo_C_0.voutp iq_modulator_half_0.passive_voltage_mode_mixer_0.transmission_gate_w_dummy_2.di_tg_ctrl_n vout_RF VDD sky130_fd_pr__pfet_01v8 ad=0.495 pd=3.33 as=0.495 ps=3.33 w=3 l=0.15
X125 VSS iq_modulator_half_0.passive_voltage_mode_mixer_0.lo_logic_0.inverter_NF6_0.vin iq_modulator_half_0.passive_voltage_mode_mixer_0.transmission_gate_w_dummy_0.di_tg_ctrl VSS sky130_fd_pr__nfet_01v8 ad=0.165 pd=1.33 as=0.165 ps=1.33 w=1 l=0.15
X126 VDD VDD VDD VDD sky130_fd_pr__pfet_01v8 ad=0.93 pd=6.62 as=0 ps=0 w=3 l=0.15