* PEX produced on Mon Nov 10 06:19:26 PM CET 2025 using /foss/tools/sak/iic-pex.sh with m=1 and s=1
* NGSPICE file created from tt_um_TinyWhisper.ext - technology: sky130A

.subckt tt_um_TinyWhisper_pex clk ena rst_n ua[0] ua[1] ua[2] ua[3] ua[4] ua[5] ua[6]
+ ua[7] ui_in[0] ui_in[1] ui_in[2] ui_in[3] ui_in[4] ui_in[5] ui_in[6] ui_in[7] uio_in[0]
+ uio_in[1] uio_in[2] uio_in[3] uio_in[4] uio_in[5] uio_in[6] uio_in[7] VDPWR VGND
X0 iq_modulator_0.iq_modulator_half_1.third_order_mfb_lp_filter_wo_C_0.resistors_0/resistors_n_0/sky130_fd_pr__res_xhigh_po_0p35_6YX8Z4_0.R1_63 iq_modulator_0.iq_modulator_half_1.third_order_mfb_lp_filter_wo_C_0.resistors_0/resistors_n_0/sky130_fd_pr__res_xhigh_po_0p35_6YX8Z4_0.R2_64 VGND sky130_fd_pr__res_xhigh_po_0p35 l=2
X1 iq_modulator_0.iq_modulator_half_0.third_order_mfb_lp_filter_wo_C_0.resistors_0/resistors_p_0/sky130_fd_pr__res_xhigh_po_0p35_6YX8Z4_0.R1_118 iq_modulator_0.iq_modulator_half_0.third_order_mfb_lp_filter_wo_C_0.resistors_0/resistors_p_0/sky130_fd_pr__res_xhigh_po_0p35_6YX8Z4_0.R2_117 VGND sky130_fd_pr__res_xhigh_po_0p35 l=2
X2 iq_modulator_0.iq_modulator_half_1.third_order_mfb_lp_filter_wo_C_0.vC1p iq_modulator_0.iq_modulator_half_1.third_order_mfb_lp_filter_wo_C_0.vC1n sky130_fd_pr__cap_mim_m3_1 l=3 w=3
X3 iq_modulator_0.iq_modulator_half_1.third_order_mfb_lp_filter_wo_C_0.resistors_0/resistors_n_0/sky130_fd_pr__res_xhigh_po_0p35_6YX8Z4_0.R1_131 iq_modulator_0.iq_modulator_half_1.third_order_mfb_lp_filter_wo_C_0.resistors_0/resistors_n_0/sky130_fd_pr__res_xhigh_po_0p35_6YX8Z4_0.R2_132 VGND sky130_fd_pr__res_xhigh_po_0p35 l=2
X4 iq_modulator_0.iq_modulator_half_0.third_order_mfb_lp_filter_wo_C_0.resistors_0/resistors_p_0/sky130_fd_pr__res_xhigh_po_0p35_6YX8Z4_0.R1_126 iq_modulator_0.iq_modulator_half_0.third_order_mfb_lp_filter_wo_C_0.resistors_0/resistors_p_0/sky130_fd_pr__res_xhigh_po_0p35_6YX8Z4_0.R2_125 VGND sky130_fd_pr__res_xhigh_po_0p35 l=2
X5 iq_modulator_0.iq_modulator_half_1.third_order_mfb_lp_filter_wo_C_0.voutp iq_modulator_0.iq_modulator_half_1.passive_voltage_mode_mixer_0.transmission_gate_w_dummy_2.di_tg_ctrl_n ua[0] VDPWR sky130_fd_pr__pfet_01v8 ad=0.495 pd=3.33 as=0.495 ps=3.33 w=3 l=0.15
X6 VDPWR VDPWR VDPWR VDPWR sky130_fd_pr__pfet_01v8 ad=0.93 pd=6.62 as=279.66 ps=1.9598k w=3 l=0.15
X7 VDPWR ui_in[4] iq_modulator_0.iq_modulator_half_0.third_order_mfb_lp_filter_wo_C_0.ota_core_hybrid_bm_0.ota_core_en_n VDPWR sky130_fd_pr__pfet_01v8_lvt ad=1.305 pd=9.29 as=1.305 ps=9.29 w=9 l=1
X8 iq_modulator_0.iq_modulator_half_0.third_order_mfb_lp_filter_wo_C_0.ota_core_hybrid_bm_0.inverter_lv_en_NF6_3.sky130_fd_pr__nfet_01v8_lvt_WHJEU4_0.S1 iq_modulator_0.iq_modulator_half_0.third_order_mfb_lp_filter_wo_C_0.resistors_0/resistors_n_0/sky130_fd_pr__res_xhigh_po_0p35_6YX8Z4_0.R1_99 iq_modulator_0.iq_modulator_half_0.third_order_mfb_lp_filter_wo_C_0.voutp VGND sky130_fd_pr__nfet_01v8_lvt ad=0.435 pd=3.29 as=0.435 ps=3.29 w=3 l=1
X9 iq_modulator_0.iq_modulator_half_1.third_order_mfb_lp_filter_wo_C_0.voutn iq_modulator_0.iq_modulator_half_1.passive_voltage_mode_mixer_0.transmission_gate_w_dummy_0.di_tg_ctrl ua[0] VGND sky130_fd_pr__nfet_01v8 ad=0.165 pd=1.33 as=0.165 ps=1.33 w=1 l=0.15
X10 VDPWR iq_modulator_0.iq_modulator_half_1.third_order_mfb_lp_filter_wo_C_0.ota_core_hybrid_bm_0.ota_core_en_n iq_modulator_0.iq_modulator_half_1.third_order_mfb_lp_filter_wo_C_0.ota_core_hybrid_bm_0.inverter_lv_en_NF6_6.sky130_fd_pr__pfet_01v8_lvt_P4QH36_0.S1 VDPWR sky130_fd_pr__pfet_01v8_lvt ad=2.61 pd=18.58 as=1.305 ps=9.29 w=9 l=1
X11 iq_modulator_0.iq_modulator_half_0.passive_voltage_mode_mixer_0.lo_logic_0.inv_cross iq_modulator_0.iq_modulator_half_0.passive_voltage_mode_mixer_0.lo_logic_0.transmission_gate_wo_dummy_0.v_b VDPWR VDPWR sky130_fd_pr__pfet_01v8 ad=0.495 pd=3.33 as=0.495 ps=3.33 w=3 l=0.15
X12 iq_modulator_0.iq_modulator_half_0.passive_voltage_mode_mixer_0.transmission_gate_w_dummy_0.di_tg_ctrl iq_modulator_0.iq_modulator_half_0.passive_voltage_mode_mixer_0.lo_logic_0.inverter_NF6_0.vin VDPWR VDPWR sky130_fd_pr__pfet_01v8 ad=0.495 pd=3.33 as=0.495 ps=3.33 w=3 l=0.15
X13 iq_modulator_0.iq_modulator_half_0.third_order_mfb_lp_filter_wo_C_0.resistors_0/resistors_n_0/sky130_fd_pr__res_xhigh_po_0p35_6YX8Z4_0.R1_11 iq_modulator_0.iq_modulator_half_0.third_order_mfb_lp_filter_wo_C_0.resistors_0/resistors_n_0/sky130_fd_pr__res_xhigh_po_0p35_6YX8Z4_0.R2_12 VGND sky130_fd_pr__res_xhigh_po_0p35 l=2
X14 VGND iq_modulator_0.iq_modulator_half_1.passive_voltage_mode_mixer_0.lo_logic_0.inverter_NF6_1.vin iq_modulator_0.iq_modulator_half_1.passive_voltage_mode_mixer_0.transmission_gate_w_dummy_0.di_tg_ctrl_n VGND sky130_fd_pr__nfet_01v8 ad=0.165 pd=1.33 as=0.165 ps=1.33 w=1 l=0.15
X15 iq_modulator_0.iq_modulator_half_1.third_order_mfb_lp_filter_wo_C_0.vC2p iq_modulator_0.iq_modulator_half_1.third_order_mfb_lp_filter_wo_C_0.vC2n sky130_fd_pr__cap_mim_m3_1 l=3 w=3
X16 VDPWR iq_modulator_0.iq_modulator_half_1.third_order_mfb_lp_filter_wo_C_0.ota_core_hybrid_bm_0.ota_core_en_n iq_modulator_0.iq_modulator_half_1.third_order_mfb_lp_filter_wo_C_0.ota_core_hybrid_bm_0.inverter_lv_en_NF6_3.sky130_fd_pr__pfet_01v8_lvt_P4QH36_0.S1 VDPWR sky130_fd_pr__pfet_01v8_lvt ad=2.61 pd=18.58 as=1.305 ps=9.29 w=9 l=1
X17 VGND VGND VGND VGND sky130_fd_pr__nfet_01v8 ad=0.165 pd=1.33 as=173.57899 ps=1.6812k w=1 l=0.15
X18 VGND iq_modulator_0.iq_modulator_half_1.passive_voltage_mode_mixer_0.lo_logic_0.inverter_NF6_0.vin iq_modulator_0.iq_modulator_half_1.passive_voltage_mode_mixer_0.transmission_gate_w_dummy_0.di_tg_ctrl VGND sky130_fd_pr__nfet_01v8 ad=0.165 pd=1.33 as=0.165 ps=1.33 w=1 l=0.15
X19 iq_modulator_0.iq_modulator_half_0.third_order_mfb_lp_filter_wo_C_0.voutp iq_modulator_0.iq_modulator_half_0.third_order_mfb_lp_filter_wo_C_0.ota_core_hybrid_bm_0.inverter_lv_en_NF6_6.vout iq_modulator_0.iq_modulator_half_0.third_order_mfb_lp_filter_wo_C_0.ota_core_hybrid_bm_0.inverter_lv_en_NF6_5.sky130_fd_pr__nfet_01v8_lvt_WHJEU4_0.S1 VGND sky130_fd_pr__nfet_01v8_lvt ad=0.435 pd=3.29 as=0.435 ps=3.29 w=3 l=1
X20 iq_modulator_0.iq_modulator_half_1.third_order_mfb_lp_filter_wo_C_0.voutp iq_modulator_0.iq_modulator_half_1.passive_voltage_mode_mixer_0.transmission_gate_w_dummy_2.di_tg_ctrl iq_modulator_0.iq_modulator_half_1.third_order_mfb_lp_filter_wo_C_0.voutp VDPWR sky130_fd_pr__pfet_01v8 ad=0.495 pd=3.33 as=29.46 ps=204.67999 w=3 l=0.15
X21 ua[0] iq_modulator_0.iq_modulator_half_1.passive_voltage_mode_mixer_0.transmission_gate_w_dummy_0.di_tg_ctrl iq_modulator_0.iq_modulator_half_1.third_order_mfb_lp_filter_wo_C_0.voutn VGND sky130_fd_pr__nfet_01v8 ad=0.165 pd=1.33 as=0.165 ps=1.33 w=1 l=0.15
X22 iq_modulator_0.iq_modulator_half_0.third_order_mfb_lp_filter_wo_C_0.resistors_0/resistors_n_0/sky130_fd_pr__res_xhigh_po_0p35_6YX8Z4_0.R1_57 iq_modulator_0.iq_modulator_half_0.third_order_mfb_lp_filter_wo_C_0.resistors_0/resistors_n_0/sky130_fd_pr__res_xhigh_po_0p35_6YX8Z4_0.R2_56 VGND sky130_fd_pr__res_xhigh_po_0p35 l=2
X23 iq_modulator_0.iq_modulator_half_1.third_order_mfb_lp_filter_wo_C_0.resistors_0/resistors_p_0/sky130_fd_pr__res_xhigh_po_0p35_6YX8Z4_0.R1_22 iq_modulator_0.iq_modulator_half_1.third_order_mfb_lp_filter_wo_C_0.resistors_0/resistors_p_0/sky130_fd_pr__res_xhigh_po_0p35_6YX8Z4_0.R2_21 VGND sky130_fd_pr__res_xhigh_po_0p35 l=2
X24 iq_modulator_0.iq_modulator_half_0.third_order_mfb_lp_filter_wo_C_0.resistors_0/resistors_n_0/sky130_fd_pr__res_xhigh_po_0p35_6YX8Z4_0.R1_11 iq_modulator_0.iq_modulator_half_0.third_order_mfb_lp_filter_wo_C_0.resistors_0/resistors_n_0/sky130_fd_pr__res_xhigh_po_0p35_6YX8Z4_0.R2_10 VGND sky130_fd_pr__res_xhigh_po_0p35 l=2
X25 iq_modulator_0.iq_modulator_half_0.third_order_mfb_lp_filter_wo_C_0.vC1p iq_modulator_0.iq_modulator_half_0.third_order_mfb_lp_filter_wo_C_0.vC1n sky130_fd_pr__cap_mim_m3_1 l=3 w=3
X26 iq_modulator_0.iq_modulator_half_0.third_order_mfb_lp_filter_wo_C_0.vC2n iq_modulator_0.iq_modulator_half_0.third_order_mfb_lp_filter_wo_C_0.vC2p sky130_fd_pr__cap_mim_m3_1 l=3 w=3
X27 iq_modulator_0.iq_modulator_half_0.third_order_mfb_lp_filter_wo_C_0.resistors_0/resistors_n_0/sky130_fd_pr__res_xhigh_po_0p35_6YX8Z4_0.R1_65 iq_modulator_0.iq_modulator_half_0.third_order_mfb_lp_filter_wo_C_0.resistors_0/resistors_n_0/sky130_fd_pr__res_xhigh_po_0p35_6YX8Z4_0.R2_64 VGND sky130_fd_pr__res_xhigh_po_0p35 l=2
X28 iq_modulator_0.iq_modulator_half_0.third_order_mfb_lp_filter_wo_C_0.resistors_0/resistors_n_0/sky130_fd_pr__res_xhigh_po_0p35_6YX8Z4_0.R1_99 iq_modulator_0.iq_modulator_half_0.third_order_mfb_lp_filter_wo_C_0.voutp sky130_fd_pr__cap_mim_m3_1 l=3 w=3
X29 iq_modulator_0.iq_modulator_half_0.third_order_mfb_lp_filter_wo_C_0.ota_core_hybrid_bm_0.inverter_lv_en_NF6_7.sky130_fd_pr__nfet_01v8_lvt_WHJEU4_0.S1 iq_modulator_0.iq_modulator_half_0.third_order_mfb_lp_filter_wo_C_0.voutn iq_modulator_0.iq_modulator_half_0.third_order_mfb_lp_filter_wo_C_0.ota_core_hybrid_bm_0.inverter_lv_en_NF6_8.vout VGND sky130_fd_pr__nfet_01v8_lvt ad=0.435 pd=3.29 as=0.435 ps=3.29 w=3 l=1
X30 iq_modulator_0.iq_modulator_half_0.third_order_mfb_lp_filter_wo_C_0.voutn iq_modulator_0.iq_modulator_half_0.third_order_mfb_lp_filter_wo_C_0.resistors_0/resistors_p_0/sky130_fd_pr__res_xhigh_po_0p35_6YX8Z4_0.R2_99 iq_modulator_0.iq_modulator_half_0.third_order_mfb_lp_filter_wo_C_0.ota_core_hybrid_bm_0.inverter_lv_en_NF6_2.sky130_fd_pr__nfet_01v8_lvt_WHJEU4_0.S1 VGND sky130_fd_pr__nfet_01v8_lvt ad=0.435 pd=3.29 as=0.435 ps=3.29 w=3 l=1
X31 iq_modulator_0.iq_modulator_half_0.third_order_mfb_lp_filter_wo_C_0.resistors_0/resistors_p_0/sky130_fd_pr__res_xhigh_po_0p35_6YX8Z4_0.R1_10 iq_modulator_0.iq_modulator_half_0.third_order_mfb_lp_filter_wo_C_0.resistors_0/resistors_p_0/sky130_fd_pr__res_xhigh_po_0p35_6YX8Z4_0.R2_9 VGND sky130_fd_pr__res_xhigh_po_0p35 l=2
X32 iq_modulator_0.iq_modulator_half_1.third_order_mfb_lp_filter_wo_C_0.vC2n iq_modulator_0.iq_modulator_half_1.third_order_mfb_lp_filter_wo_C_0.vC2p sky130_fd_pr__cap_mim_m3_1 l=3 w=3
X33 iq_modulator_0.iq_modulator_half_1.third_order_mfb_lp_filter_wo_C_0.resistors_0/resistors_n_0/sky130_fd_pr__res_xhigh_po_0p35_6YX8Z4_0.R1_99 iq_modulator_0.iq_modulator_half_1.third_order_mfb_lp_filter_wo_C_0.voutp sky130_fd_pr__cap_mim_m3_1 l=3 w=3
X34 ua[0] iq_modulator_0.iq_modulator_half_0.passive_voltage_mode_mixer_0.transmission_gate_w_dummy_2.di_tg_ctrl iq_modulator_0.iq_modulator_half_0.third_order_mfb_lp_filter_wo_C_0.voutp VGND sky130_fd_pr__nfet_01v8 ad=0.165 pd=1.33 as=0.165 ps=1.33 w=1 l=0.15
X35 iq_modulator_0.iq_modulator_half_1.third_order_mfb_lp_filter_wo_C_0.resistors_0/resistors_p_0/sky130_fd_pr__res_xhigh_po_0p35_6YX8Z4_0.R1_34 iq_modulator_0.iq_modulator_half_1.third_order_mfb_lp_filter_wo_C_0.resistors_0/resistors_p_0/sky130_fd_pr__res_xhigh_po_0p35_6YX8Z4_0.R2_35 VGND sky130_fd_pr__res_xhigh_po_0p35 l=2
X36 iq_modulator_0.iq_modulator_half_1.third_order_mfb_lp_filter_wo_C_0.resistors_0/resistors_p_0/sky130_fd_pr__res_xhigh_po_0p35_6YX8Z4_0.R1_20 iq_modulator_0.iq_modulator_half_1.third_order_mfb_lp_filter_wo_C_0.resistors_0/resistors_p_0/sky130_fd_pr__res_xhigh_po_0p35_6YX8Z4_0.R2_21 VGND sky130_fd_pr__res_xhigh_po_0p35 l=2
X37 iq_modulator_0.iq_modulator_half_0.third_order_mfb_lp_filter_wo_C_0.resistors_0/resistors_n_0/sky130_fd_pr__res_xhigh_po_0p35_6YX8Z4_0.R1_63 iq_modulator_0.iq_modulator_half_0.third_order_mfb_lp_filter_wo_C_0.resistors_0/resistors_n_0/sky130_fd_pr__res_xhigh_po_0p35_6YX8Z4_0.R2_64 VGND sky130_fd_pr__res_xhigh_po_0p35 l=2
X38 iq_modulator_0.iq_modulator_half_0.third_order_mfb_lp_filter_wo_C_0.vC1p iq_modulator_0.iq_modulator_half_0.third_order_mfb_lp_filter_wo_C_0.vC1n sky130_fd_pr__cap_mim_m3_1 l=3 w=3
X39 VDPWR iq_modulator_0.iq_modulator_half_1.passive_voltage_mode_mixer_0.lo_logic_0.inverter_NF6_0.vin iq_modulator_0.iq_modulator_half_1.passive_voltage_mode_mixer_0.transmission_gate_w_dummy_0.di_tg_ctrl VDPWR sky130_fd_pr__pfet_01v8 ad=0.495 pd=3.33 as=0.495 ps=3.33 w=3 l=0.15
X40 iq_modulator_0.iq_modulator_half_1.third_order_mfb_lp_filter_wo_C_0.resistors_0/resistors_p_0/sky130_fd_pr__res_xhigh_po_0p35_6YX8Z4_0.R1_74 iq_modulator_0.iq_modulator_half_1.third_order_mfb_lp_filter_wo_C_0.resistors_0/resistors_p_0/sky130_fd_pr__res_xhigh_po_0p35_6YX8Z4_0.R2_75 VGND sky130_fd_pr__res_xhigh_po_0p35 l=2
X41 iq_modulator_0.iq_modulator_half_1.third_order_mfb_lp_filter_wo_C_0.resistors_0/resistors_n_0/sky130_fd_pr__res_xhigh_po_0p35_6YX8Z4_0.R1_15 iq_modulator_0.iq_modulator_half_1.third_order_mfb_lp_filter_wo_C_0.resistors_0/resistors_n_0/sky130_fd_pr__res_xhigh_po_0p35_6YX8Z4_0.R2_14 VGND sky130_fd_pr__res_xhigh_po_0p35 l=2
X42 iq_modulator_0.iq_modulator_half_0.third_order_mfb_lp_filter_wo_C_0.resistors_0/resistors_n_0/sky130_fd_pr__res_xhigh_po_0p35_6YX8Z4_0.R1_131 iq_modulator_0.iq_modulator_half_0.third_order_mfb_lp_filter_wo_C_0.resistors_0/resistors_n_0/sky130_fd_pr__res_xhigh_po_0p35_6YX8Z4_0.R2_132 VGND sky130_fd_pr__res_xhigh_po_0p35 l=2
X43 iq_modulator_0.iq_modulator_half_0.third_order_mfb_lp_filter_wo_C_0.vC2p iq_modulator_0.iq_modulator_half_0.third_order_mfb_lp_filter_wo_C_0.resistors_0/resistors_p_0/sky130_fd_pr__res_xhigh_po_0p35_6YX8Z4_0.R2_37 VGND sky130_fd_pr__res_xhigh_po_0p35 l=2
X44 iq_modulator_0.iq_modulator_half_0.third_order_mfb_lp_filter_wo_C_0.resistors_0/resistors_p_0/sky130_fd_pr__res_xhigh_po_0p35_6YX8Z4_0.R1_22 iq_modulator_0.iq_modulator_half_0.third_order_mfb_lp_filter_wo_C_0.resistors_0/resistors_p_0/sky130_fd_pr__res_xhigh_po_0p35_6YX8Z4_0.R2_23 VGND sky130_fd_pr__res_xhigh_po_0p35 l=2
X45 iq_modulator_0.iq_modulator_half_0.third_order_mfb_lp_filter_wo_C_0.resistors_0/resistors_p_0/sky130_fd_pr__res_xhigh_po_0p35_6YX8Z4_0.R1_8 iq_modulator_0.iq_modulator_half_0.third_order_mfb_lp_filter_wo_C_0.resistors_0/resistors_p_0/sky130_fd_pr__res_xhigh_po_0p35_6YX8Z4_0.R2_9 VGND sky130_fd_pr__res_xhigh_po_0p35 l=2
X46 iq_modulator_0.iq_modulator_half_0.passive_voltage_mode_mixer_0.transmission_gate_w_dummy_2.di_tg_ctrl_n iq_modulator_0.iq_modulator_half_0.passive_voltage_mode_mixer_0.lo_logic_1.inverter_NF6_1.vin VGND VGND sky130_fd_pr__nfet_01v8 ad=0.165 pd=1.33 as=0.165 ps=1.33 w=1 l=0.15
X47 iq_modulator_0.iq_modulator_half_0.third_order_mfb_lp_filter_wo_C_0.resistors_0/resistors_p_0/sky130_fd_pr__res_xhigh_po_0p35_6YX8Z4_0.R1_76 iq_modulator_0.iq_modulator_half_0.third_order_mfb_lp_filter_wo_C_0.resistors_0/resistors_p_0/sky130_fd_pr__res_xhigh_po_0p35_6YX8Z4_0.R2_77 VGND sky130_fd_pr__res_xhigh_po_0p35 l=2
X48 iq_modulator_0.iq_modulator_half_1.third_order_mfb_lp_filter_wo_C_0.vC2n iq_modulator_0.iq_modulator_half_1.third_order_mfb_lp_filter_wo_C_0.vC2p sky130_fd_pr__cap_mim_m3_1 l=3 w=3
X49 iq_modulator_0.iq_modulator_half_1.third_order_mfb_lp_filter_wo_C_0.vC1n iq_modulator_0.iq_modulator_half_1.third_order_mfb_lp_filter_wo_C_0.vC1p sky130_fd_pr__cap_mim_m3_1 l=3 w=3
X50 iq_modulator_0.iq_modulator_half_0.third_order_mfb_lp_filter_wo_C_0.resistors_0/resistors_p_0/sky130_fd_pr__res_xhigh_po_0p35_6YX8Z4_0.R1_62 iq_modulator_0.iq_modulator_half_0.third_order_mfb_lp_filter_wo_C_0.resistors_0/resistors_p_0/sky130_fd_pr__res_xhigh_po_0p35_6YX8Z4_0.R2_63 VGND sky130_fd_pr__res_xhigh_po_0p35 l=2
X51 VDPWR iq_modulator_0.iq_modulator_half_0.third_order_mfb_lp_filter_wo_C_0.ota_core_hybrid_bm_0.ota_core_en_n iq_modulator_0.iq_modulator_half_0.third_order_mfb_lp_filter_wo_C_0.ota_core_hybrid_bm_0.inverter_lv_en_NF4_1.sky130_fd_pr__pfet_01v8_lvt_P4JB26_0.S1 VDPWR sky130_fd_pr__pfet_01v8_lvt ad=2.61 pd=18.58 as=1.305 ps=9.29 w=9 l=1
X52 ua[0] iq_modulator_0.iq_modulator_half_1.passive_voltage_mode_mixer_0.transmission_gate_w_dummy_2.di_tg_ctrl iq_modulator_0.iq_modulator_half_1.third_order_mfb_lp_filter_wo_C_0.voutp VGND sky130_fd_pr__nfet_01v8 ad=0.165 pd=1.33 as=0.165 ps=1.33 w=1 l=0.15
X53 iq_modulator_0.iq_modulator_half_1.third_order_mfb_lp_filter_wo_C_0.resistors_0/resistors_p_0/sky130_fd_pr__res_xhigh_po_0p35_6YX8Z4_0.R1_102 iq_modulator_0.iq_modulator_half_1.third_order_mfb_lp_filter_wo_C_0.resistors_0/resistors_p_0/sky130_fd_pr__res_xhigh_po_0p35_6YX8Z4_0.R2_101 VGND sky130_fd_pr__res_xhigh_po_0p35 l=2
X54 iq_modulator_0.iq_modulator_half_1.third_order_mfb_lp_filter_wo_C_0.resistors_0/resistors_p_0/sky130_fd_pr__res_xhigh_po_0p35_6YX8Z4_0.R1_88 iq_modulator_0.iq_modulator_half_1.third_order_mfb_lp_filter_wo_C_0.resistors_0/resistors_p_0/sky130_fd_pr__res_xhigh_po_0p35_6YX8Z4_0.R2_87 VGND sky130_fd_pr__res_xhigh_po_0p35 l=2
X55 iq_modulator_0.iq_modulator_half_1.third_order_mfb_lp_filter_wo_C_0.resistors_0/resistors_n_0/sky130_fd_pr__res_xhigh_po_0p35_6YX8Z4_0.R1_81 iq_modulator_0.iq_modulator_half_1.third_order_mfb_lp_filter_wo_C_0.resistors_0/resistors_n_0/sky130_fd_pr__res_xhigh_po_0p35_6YX8Z4_0.R2_82 VGND sky130_fd_pr__res_xhigh_po_0p35 l=2
X56 VGND iq_modulator_0.iq_modulator_half_0.passive_voltage_mode_mixer_0.lo_logic_1.buf_cross iq_modulator_0.iq_modulator_half_0.passive_voltage_mode_mixer_0.lo_logic_1.inv_cross VGND sky130_fd_pr__nfet_01v8 ad=0.165 pd=1.33 as=1.27 ps=4.54 w=1 l=0.15
X57 iq_modulator_0.iq_modulator_half_0.third_order_mfb_lp_filter_wo_C_0.resistors_0/resistors_p_0/sky130_fd_pr__res_xhigh_po_0p35_6YX8Z4_0.R1_90 iq_modulator_0.iq_modulator_half_0.third_order_mfb_lp_filter_wo_C_0.resistors_0/resistors_p_0/sky130_fd_pr__res_xhigh_po_0p35_6YX8Z4_0.R2_89 VGND sky130_fd_pr__res_xhigh_po_0p35 l=2
X58 iq_modulator_0.iq_modulator_half_0.third_order_mfb_lp_filter_wo_C_0.resistors_0/resistors_p_0/sky130_fd_pr__res_xhigh_po_0p35_6YX8Z4_0.R1_76 iq_modulator_0.iq_modulator_half_0.third_order_mfb_lp_filter_wo_C_0.resistors_0/resistors_p_0/sky130_fd_pr__res_xhigh_po_0p35_6YX8Z4_0.R2_75 VGND sky130_fd_pr__res_xhigh_po_0p35 l=2
X59 iq_modulator_0.iq_modulator_half_0.third_order_mfb_lp_filter_wo_C_0.resistors_0/resistors_p_0/sky130_fd_pr__res_xhigh_po_0p35_6YX8Z4_0.R1_130 iq_modulator_0.iq_modulator_half_0.third_order_mfb_lp_filter_wo_C_0.resistors_0/resistors_p_0/sky130_fd_pr__res_xhigh_po_0p35_6YX8Z4_0.R2_129 VGND sky130_fd_pr__res_xhigh_po_0p35 l=2
X60 iq_modulator_0.iq_modulator_half_0.third_order_mfb_lp_filter_wo_C_0.ota_core_hybrid_bm_0.inverter_lv_en_NF6_6.vout iq_modulator_0.iq_modulator_half_0.third_order_mfb_lp_filter_wo_C_0.ota_core_hybrid_bm_0.inverter_lv_en_NF6_8.vout iq_modulator_0.iq_modulator_half_0.third_order_mfb_lp_filter_wo_C_0.ota_core_hybrid_bm_0.inverter_lv_en_NF6_6.sky130_fd_pr__pfet_01v8_lvt_P4QH36_0.S1 VDPWR sky130_fd_pr__pfet_01v8_lvt ad=1.305 pd=9.29 as=1.305 ps=9.29 w=9 l=1
X61 iq_modulator_0.iq_modulator_half_1.third_order_mfb_lp_filter_wo_C_0.voutp iq_modulator_0.iq_modulator_half_1.passive_voltage_mode_mixer_0.transmission_gate_w_dummy_2.di_tg_ctrl_n iq_modulator_0.iq_modulator_half_1.third_order_mfb_lp_filter_wo_C_0.voutp VGND sky130_fd_pr__nfet_01v8 ad=0.165 pd=1.33 as=9.82 ps=76.68 w=1 l=0.15
X62 iq_modulator_0.iq_modulator_half_0.passive_voltage_mode_mixer_0.lo_logic_0.buf_cross iq_modulator_0.iq_modulator_half_0.passive_voltage_mode_mixer_0.lo_logic_0.inverter_NF2_1.vin VGND VGND sky130_fd_pr__nfet_01v8 ad=0.165 pd=1.33 as=0.165 ps=1.33 w=1 l=0.15
X63 iq_modulator_0.iq_modulator_half_1.third_order_mfb_lp_filter_wo_C_0.vC1p iq_modulator_0.iq_modulator_half_1.third_order_mfb_lp_filter_wo_C_0.vC1n sky130_fd_pr__cap_mim_m3_1 l=3 w=3
X64 ua[0] iq_modulator_0.iq_modulator_half_1.passive_voltage_mode_mixer_0.transmission_gate_w_dummy_2.di_tg_ctrl ua[0] VDPWR sky130_fd_pr__pfet_01v8 ad=0.495 pd=3.33 as=55.2 ps=372.79999 w=3 l=0.15
X65 iq_modulator_0.iq_modulator_half_0.passive_voltage_mode_mixer_0.lo_logic_0.inv_cross iq_modulator_0.iq_modulator_half_0.passive_voltage_mode_mixer_0.lo_logic_0.transmission_gate_wo_dummy_0.v_b VGND VGND sky130_fd_pr__nfet_01v8 ad=0.165 pd=1.33 as=0.165 ps=1.33 w=1 l=0.15
X66 iq_modulator_0.iq_modulator_half_0.passive_voltage_mode_mixer_0.lo_logic_1.inverter_NF6_1.vin iq_modulator_0.iq_modulator_half_0.passive_voltage_mode_mixer_0.lo_logic_1.inv_cross VGND VGND sky130_fd_pr__nfet_01v8 ad=0.165 pd=1.33 as=0.165 ps=1.33 w=1 l=0.15
X67 VDPWR iq_modulator_0.iq_modulator_half_0.passive_voltage_mode_mixer_0.lo_logic_0.inverter_NF6_0.vin iq_modulator_0.iq_modulator_half_0.passive_voltage_mode_mixer_0.transmission_gate_w_dummy_0.di_tg_ctrl VDPWR sky130_fd_pr__pfet_01v8 ad=0.495 pd=3.33 as=0.495 ps=3.33 w=3 l=0.15
X68 iq_modulator_0.iq_modulator_half_0.third_order_mfb_lp_filter_wo_C_0.vC1n iq_modulator_0.iq_modulator_half_0.third_order_mfb_lp_filter_wo_C_0.vC1p sky130_fd_pr__cap_mim_m3_1 l=3 w=3
X69 iq_modulator_0.iq_modulator_half_1.third_order_mfb_lp_filter_wo_C_0.vC1n iq_modulator_0.iq_modulator_half_1.third_order_mfb_lp_filter_wo_C_0.vC1p sky130_fd_pr__cap_mim_m3_1 l=3 w=3
X70 iq_modulator_0.iq_modulator_half_0.third_order_mfb_lp_filter_wo_C_0.resistors_0/resistors_n_0/sky130_fd_pr__res_xhigh_po_0p35_6YX8Z4_0.R1_15 iq_modulator_0.iq_modulator_half_0.third_order_mfb_lp_filter_wo_C_0.resistors_0/resistors_n_0/sky130_fd_pr__res_xhigh_po_0p35_6YX8Z4_0.R2_14 VGND sky130_fd_pr__res_xhigh_po_0p35 l=2
X71 iq_modulator_0.iq_modulator_half_0.third_order_mfb_lp_filter_wo_C_0.vC1p iq_modulator_0.iq_modulator_half_0.third_order_mfb_lp_filter_wo_C_0.vC1n sky130_fd_pr__cap_mim_m3_1 l=3 w=3
X72 iq_modulator_0.iq_modulator_half_0.third_order_mfb_lp_filter_wo_C_0.vC2p iq_modulator_0.iq_modulator_half_0.third_order_mfb_lp_filter_wo_C_0.vC2n sky130_fd_pr__cap_mim_m3_1 l=3 w=3
X73 VGND VGND VGND VGND sky130_fd_pr__nfet_01v8 ad=0.165 pd=1.33 as=0 ps=0 w=1 l=0.15
X74 ua[0] iq_modulator_0.iq_modulator_half_0.passive_voltage_mode_mixer_0.transmission_gate_w_dummy_2.di_tg_ctrl iq_modulator_0.iq_modulator_half_0.third_order_mfb_lp_filter_wo_C_0.voutp VGND sky130_fd_pr__nfet_01v8 ad=0.165 pd=1.33 as=0.165 ps=1.33 w=1 l=0.15
X75 VDPWR iq_modulator_0.iq_modulator_half_1.passive_voltage_mode_mixer_0.lo_logic_0.transmission_gate_wo_dummy_0.v_b iq_modulator_0.iq_modulator_half_1.passive_voltage_mode_mixer_0.lo_logic_0.inv_cross VDPWR sky130_fd_pr__pfet_01v8 ad=0.495 pd=3.33 as=0.495 ps=3.33 w=3 l=0.15
X76 iq_modulator_0.iq_modulator_half_0.third_order_mfb_lp_filter_wo_C_0.vC2p iq_modulator_0.iq_modulator_half_0.third_order_mfb_lp_filter_wo_C_0.vC2n sky130_fd_pr__cap_mim_m3_1 l=3 w=3
X77 iq_modulator_0.iq_modulator_half_0.third_order_mfb_lp_filter_wo_C_0.resistors_0/resistors_n_0/sky130_fd_pr__res_xhigh_po_0p35_6YX8Z4_0.R1_81 iq_modulator_0.iq_modulator_half_0.third_order_mfb_lp_filter_wo_C_0.resistors_0/resistors_n_0/sky130_fd_pr__res_xhigh_po_0p35_6YX8Z4_0.R2_82 VGND sky130_fd_pr__res_xhigh_po_0p35 l=2
X78 iq_modulator_0.iq_modulator_half_0.third_order_mfb_lp_filter_wo_C_0.vC2n iq_modulator_0.iq_modulator_half_0.third_order_mfb_lp_filter_wo_C_0.vC2p sky130_fd_pr__cap_mim_m3_1 l=3 w=3
X79 iq_modulator_0.iq_modulator_half_1.third_order_mfb_lp_filter_wo_C_0.ota_core_hybrid_bm_0.inverter_lv_en_NF6_1.sky130_fd_pr__pfet_01v8_lvt_P4QH36_0.S1 iq_modulator_0.iq_modulator_half_1.third_order_mfb_lp_filter_wo_C_0.ota_core_hybrid_bm_0.ota_core_en_n VDPWR VDPWR sky130_fd_pr__pfet_01v8_lvt ad=1.305 pd=9.29 as=2.61 ps=18.58 w=9 l=1
X80 iq_modulator_0.iq_modulator_half_0.third_order_mfb_lp_filter_wo_C_0.resistors_0/resistors_p_0/sky130_fd_pr__res_xhigh_po_0p35_6YX8Z4_0.R1_26 iq_modulator_0.iq_modulator_half_0.third_order_mfb_lp_filter_wo_C_0.resistors_0/resistors_p_0/sky130_fd_pr__res_xhigh_po_0p35_6YX8Z4_0.R2_27 VGND sky130_fd_pr__res_xhigh_po_0p35 l=2
X81 iq_modulator_0.iq_modulator_half_0.third_order_mfb_lp_filter_wo_C_0.ota_core_hybrid_bm_0.ota_core_en_n ui_in[4] VDPWR VDPWR sky130_fd_pr__pfet_01v8_lvt ad=1.305 pd=9.29 as=1.305 ps=9.29 w=9 l=1
X82 VDPWR iq_modulator_0.iq_modulator_half_1.passive_voltage_mode_mixer_0.lo_logic_1.inv_cross iq_modulator_0.iq_modulator_half_1.passive_voltage_mode_mixer_0.lo_logic_1.inverter_NF6_1.vin VDPWR sky130_fd_pr__pfet_01v8 ad=0.495 pd=3.33 as=0.495 ps=3.33 w=3 l=0.15
X83 iq_modulator_0.iq_modulator_half_1.third_order_mfb_lp_filter_wo_C_0.resistors_0/resistors_p_0/sky130_fd_pr__res_xhigh_po_0p35_6YX8Z4_0.R1_52 iq_modulator_0.iq_modulator_half_1.third_order_mfb_lp_filter_wo_C_0.resistors_0/resistors_p_0/sky130_fd_pr__res_xhigh_po_0p35_6YX8Z4_0.R2_51 VGND sky130_fd_pr__res_xhigh_po_0p35 l=2
X84 VDPWR VDPWR VDPWR VDPWR sky130_fd_pr__pfet_01v8 ad=0.93 pd=6.62 as=0 ps=0 w=3 l=0.15
X85 iq_modulator_0.iq_modulator_half_0.third_order_mfb_lp_filter_wo_C_0.voutp iq_modulator_0.iq_modulator_half_0.passive_voltage_mode_mixer_0.transmission_gate_w_dummy_2.di_tg_ctrl_n iq_modulator_0.iq_modulator_half_0.third_order_mfb_lp_filter_wo_C_0.voutp VGND sky130_fd_pr__nfet_01v8 ad=0.165 pd=1.33 as=9.82 ps=76.68 w=1 l=0.15
X86 VDPWR VDPWR VDPWR VDPWR sky130_fd_pr__pfet_01v8 ad=0.495 pd=3.33 as=0 ps=0 w=3 l=0.15
X87 iq_modulator_0.iq_modulator_half_0.third_order_mfb_lp_filter_wo_C_0.ota_core_hybrid_bm_0.inverter_lv_en_NF4_0.sky130_fd_pr__pfet_01v8_lvt_P4JB26_0.S1 iq_modulator_0.iq_modulator_half_0.third_order_mfb_lp_filter_wo_C_0.ota_core_hybrid_bm_0.inverter_lv_en_NF6_6.vout iq_modulator_0.iq_modulator_half_0.third_order_mfb_lp_filter_wo_C_0.ota_core_hybrid_bm_0.inverter_lv_en_NF6_6.vout VDPWR sky130_fd_pr__pfet_01v8_lvt ad=1.305 pd=9.29 as=1.305 ps=9.29 w=9 l=1
X88 iq_modulator_0.iq_modulator_half_1.passive_voltage_mode_mixer_0.transmission_gate_w_dummy_2.di_tg_ctrl_n iq_modulator_0.iq_modulator_half_1.passive_voltage_mode_mixer_0.lo_logic_1.inverter_NF6_1.vin VDPWR VDPWR sky130_fd_pr__pfet_01v8 ad=0.495 pd=3.33 as=0.495 ps=3.33 w=3 l=0.15
X89 iq_modulator_0.iq_modulator_half_0.third_order_mfb_lp_filter_wo_C_0.resistors_0/resistors_p_0/sky130_fd_pr__res_xhigh_po_0p35_6YX8Z4_0.R1_40 iq_modulator_0.iq_modulator_half_0.third_order_mfb_lp_filter_wo_C_0.resistors_0/resistors_p_0/sky130_fd_pr__res_xhigh_po_0p35_6YX8Z4_0.R2_39 VGND sky130_fd_pr__res_xhigh_po_0p35 l=2
X90 iq_modulator_0.iq_modulator_half_0.third_order_mfb_lp_filter_wo_C_0.resistors_0/resistors_p_0/sky130_fd_pr__res_xhigh_po_0p35_6YX8Z4_0.R2_99 iq_modulator_0.iq_modulator_half_0.third_order_mfb_lp_filter_wo_C_0.voutn sky130_fd_pr__cap_mim_m3_1 l=3 w=3
X91 iq_modulator_0.iq_modulator_half_1.third_order_mfb_lp_filter_wo_C_0.voutp iq_modulator_0.iq_modulator_half_1.passive_voltage_mode_mixer_0.transmission_gate_w_dummy_2.di_tg_ctrl_n ua[0] VDPWR sky130_fd_pr__pfet_01v8 ad=0.495 pd=3.33 as=0.495 ps=3.33 w=3 l=0.15
X92 iq_modulator_0.iq_modulator_half_1.passive_voltage_mode_mixer_0.transmission_gate_w_dummy_2.di_tg_ctrl iq_modulator_0.iq_modulator_half_1.passive_voltage_mode_mixer_0.lo_logic_1.inverter_NF6_0.vin VDPWR VDPWR sky130_fd_pr__pfet_01v8 ad=0.495 pd=3.33 as=0.495 ps=3.33 w=3 l=0.15
X93 iq_modulator_0.iq_modulator_half_0.third_order_mfb_lp_filter_wo_C_0.vC2n iq_modulator_0.iq_modulator_half_0.third_order_mfb_lp_filter_wo_C_0.vC2p sky130_fd_pr__cap_mim_m3_1 l=3 w=3
X94 ua[0] iq_modulator_0.iq_modulator_half_1.passive_voltage_mode_mixer_0.transmission_gate_w_dummy_2.di_tg_ctrl_n ua[0] VGND sky130_fd_pr__nfet_01v8 ad=0.165 pd=1.33 as=18.4 ps=148.8 w=1 l=0.15
X95 iq_modulator_0.iq_modulator_half_1.third_order_mfb_lp_filter_wo_C_0.ota_core_hybrid_bm_0.inverter_lv_en_NF6_0.sky130_fd_pr__nfet_01v8_lvt_WHJEU4_0.S1 iq_modulator_0.iq_modulator_half_1.third_order_mfb_lp_filter_wo_C_0.resistors_0/resistors_p_0/sky130_fd_pr__res_xhigh_po_0p35_6YX8Z4_0.R2_99 iq_modulator_0.iq_modulator_half_1.third_order_mfb_lp_filter_wo_C_0.ota_core_hybrid_bm_0.inverter_lv_en_NF6_6.vout VGND sky130_fd_pr__nfet_01v8_lvt ad=0.435 pd=3.29 as=0.435 ps=3.29 w=3 l=1
X96 iq_modulator_0.iq_modulator_half_1.third_order_mfb_lp_filter_wo_C_0.vC1p iq_modulator_0.iq_modulator_half_1.third_order_mfb_lp_filter_wo_C_0.vC1n sky130_fd_pr__cap_mim_m3_1 l=3 w=3
X97 iq_modulator_0.iq_modulator_half_1.third_order_mfb_lp_filter_wo_C_0.vC2p iq_modulator_0.iq_modulator_half_1.third_order_mfb_lp_filter_wo_C_0.vC2n sky130_fd_pr__cap_mim_m3_1 l=3 w=3
X98 iq_modulator_0.iq_modulator_half_1.third_order_mfb_lp_filter_wo_C_0.ota_core_hybrid_bm_0.inverter_lv_en_NF6_6.sky130_fd_pr__pfet_01v8_lvt_P4QH36_0.S1 iq_modulator_0.iq_modulator_half_1.third_order_mfb_lp_filter_wo_C_0.ota_core_hybrid_bm_0.inverter_lv_en_NF6_8.vout iq_modulator_0.iq_modulator_half_1.third_order_mfb_lp_filter_wo_C_0.ota_core_hybrid_bm_0.inverter_lv_en_NF6_6.vout VDPWR sky130_fd_pr__pfet_01v8_lvt ad=1.305 pd=9.29 as=1.305 ps=9.29 w=9 l=1
X99 VGND VGND VGND VGND sky130_fd_pr__nfet_01v8 ad=0.165 pd=1.33 as=0 ps=0 w=1 l=0.15
X100 VDPWR VGND sky130_fd_pr__cap_mim_m3_1 l=3 w=3
X101 iq_modulator_0.iq_modulator_half_1.third_order_mfb_lp_filter_wo_C_0.vC2n iq_modulator_0.iq_modulator_half_1.third_order_mfb_lp_filter_wo_C_0.vC2p sky130_fd_pr__cap_mim_m3_1 l=3 w=3
X102 VDPWR VGND sky130_fd_pr__cap_mim_m3_1 l=3 w=3
X103 iq_modulator_0.iq_modulator_half_0.third_order_mfb_lp_filter_wo_C_0.ota_core_hybrid_bm_0.inverter_lv_en_NF6_6.vout iq_modulator_0.iq_modulator_half_0.third_order_mfb_lp_filter_wo_C_0.resistors_0/resistors_n_0/sky130_fd_pr__res_xhigh_po_0p35_6YX8Z4_0.R1_99 iq_modulator_0.iq_modulator_half_0.third_order_mfb_lp_filter_wo_C_0.ota_core_hybrid_bm_0.inverter_lv_en_NF6_1.sky130_fd_pr__pfet_01v8_lvt_P4QH36_0.S1 VDPWR sky130_fd_pr__pfet_01v8_lvt ad=1.305 pd=9.29 as=1.305 ps=9.29 w=9 l=1
X104 iq_modulator_0.iq_modulator_half_1.third_order_mfb_lp_filter_wo_C_0.vC1p iq_modulator_0.iq_modulator_half_1.third_order_mfb_lp_filter_wo_C_0.vC1n sky130_fd_pr__cap_mim_m3_1 l=3 w=3
X105 VGND VDPWR iq_modulator_0.iq_modulator_half_0.third_order_mfb_lp_filter_wo_C_0.ota_core_hybrid_bm_0.inverter_lv_en_NF6_4.sky130_fd_pr__nfet_01v8_lvt_WHJEU4_0.S1 VGND sky130_fd_pr__nfet_01v8_lvt ad=0.87 pd=6.58 as=0.435 ps=3.29 w=3 l=1
X106 iq_modulator_0.iq_modulator_half_0.third_order_mfb_lp_filter_wo_C_0.vC1n iq_modulator_0.iq_modulator_half_0.third_order_mfb_lp_filter_wo_C_0.vC1p sky130_fd_pr__cap_mim_m3_1 l=3 w=3
X107 iq_modulator_0.iq_modulator_half_1.third_order_mfb_lp_filter_wo_C_0.ota_core_hybrid_bm_0.inverter_lv_en_NF6_3.sky130_fd_pr__pfet_01v8_lvt_P4QH36_0.S1 iq_modulator_0.iq_modulator_half_1.third_order_mfb_lp_filter_wo_C_0.resistors_0/resistors_n_0/sky130_fd_pr__res_xhigh_po_0p35_6YX8Z4_0.R1_99 iq_modulator_0.iq_modulator_half_1.third_order_mfb_lp_filter_wo_C_0.voutp VDPWR sky130_fd_pr__pfet_01v8_lvt ad=1.305 pd=9.29 as=1.305 ps=9.29 w=9 l=1